
---------- Begin Simulation Statistics ----------
simSeconds                                   0.050043                       # Number of seconds simulated (Second)
simTicks                                  50042884500                       # Number of ticks simulated (Tick)
finalTick                                 50042884500                       # Number of ticks from beginning of simulation (restored from checkpoints and never reset) (Tick)
simFreq                                  1000000000000                       # The number of ticks per simulated second ((Tick/Second))
hostSeconds                                    598.66                       # Real time elapsed on the host (Second)
hostTickRate                                 83591920                       # The number of ticks simulated per host second (ticks/s) ((Tick/Second))
hostMemory                                    2216956                       # Number of bytes of host memory used (Byte)
simInsts                                     81122161                       # Number of instructions simulated (Count)
simOps                                      149806690                       # Number of ops (including micro ops) simulated (Count)
hostInstRate                                   135507                       # Simulator instruction rate (inst/s) ((Count/Second))
hostOpRate                                     250238                       # Simulator op (including micro ops) rate (op/s) ((Count/Second))
system.clk_domain.clock                          1000                       # Clock period in ticks (Tick)
system.cpu.numCycles                        100085770                       # Number of cpu cycles simulated (Cycle)
system.cpu.numWorkItemsStarted                      0                       # Number of work items this cpu started (Count)
system.cpu.numWorkItemsCompleted                    0                       # Number of work items this cpu completed (Count)
system.cpu.instsAdded                       282850102                       # Number of instructions added to the IQ (excludes non-spec) (Count)
system.cpu.nonSpecInstsAdded                   727062                       # Number of non-speculative instructions added to the IQ (Count)
system.cpu.instsIssued                      237099946                       # Number of instructions issued (Count)
system.cpu.squashedInstsIssued                 842168                       # Number of squashed instructions issued (Count)
system.cpu.squashedInstsExamined            133770452                       # Number of squashed instructions iterated over during squash; mainly for profiling (Count)
system.cpu.squashedOperandsExamined         202636579                       # Number of squashed operands that are examined and possibly removed from graph (Count)
system.cpu.squashedNonSpecRemoved              484668                       # Number of squashed non-spec instructions that were removed (Count)
system.cpu.numIssuedDist::samples           100043730                       # Number of insts issued each cycle (Count)
system.cpu.numIssuedDist::mean               2.369963                       # Number of insts issued each cycle (Count)
system.cpu.numIssuedDist::stdev              2.556105                       # Number of insts issued each cycle (Count)
system.cpu.numIssuedDist::underflows                0      0.00%      0.00% # Number of insts issued each cycle (Count)
system.cpu.numIssuedDist::0                  41748216     41.73%     41.73% # Number of insts issued each cycle (Count)
system.cpu.numIssuedDist::1                   7330015      7.33%     49.06% # Number of insts issued each cycle (Count)
system.cpu.numIssuedDist::2                   8910508      8.91%     57.96% # Number of insts issued each cycle (Count)
system.cpu.numIssuedDist::3                   8776021      8.77%     66.74% # Number of insts issued each cycle (Count)
system.cpu.numIssuedDist::4                   9070166      9.07%     75.80% # Number of insts issued each cycle (Count)
system.cpu.numIssuedDist::5                   8179236      8.18%     83.98% # Number of insts issued each cycle (Count)
system.cpu.numIssuedDist::6                   7503559      7.50%     91.48% # Number of insts issued each cycle (Count)
system.cpu.numIssuedDist::7                   4785418      4.78%     96.26% # Number of insts issued each cycle (Count)
system.cpu.numIssuedDist::8                   3740591      3.74%    100.00% # Number of insts issued each cycle (Count)
system.cpu.numIssuedDist::overflows                 0      0.00%    100.00% # Number of insts issued each cycle (Count)
system.cpu.numIssuedDist::min_value                 0                       # Number of insts issued each cycle (Count)
system.cpu.numIssuedDist::max_value                 8                       # Number of insts issued each cycle (Count)
system.cpu.numIssuedDist::total             100043730                       # Number of insts issued each cycle (Count)
system.cpu.statFuBusy::No_OpClass                   0      0.00%      0.00% # attempts to use FU when none available (Count)
system.cpu.statFuBusy::IntAlu                 2561458     62.99%     62.99% # attempts to use FU when none available (Count)
system.cpu.statFuBusy::IntMult                      0      0.00%     62.99% # attempts to use FU when none available (Count)
system.cpu.statFuBusy::IntDiv                       0      0.00%     62.99% # attempts to use FU when none available (Count)
system.cpu.statFuBusy::FloatAdd                     0      0.00%     62.99% # attempts to use FU when none available (Count)
system.cpu.statFuBusy::FloatCmp                     0      0.00%     62.99% # attempts to use FU when none available (Count)
system.cpu.statFuBusy::FloatCvt                     0      0.00%     62.99% # attempts to use FU when none available (Count)
system.cpu.statFuBusy::FloatMult                    0      0.00%     62.99% # attempts to use FU when none available (Count)
system.cpu.statFuBusy::FloatMultAcc                 0      0.00%     62.99% # attempts to use FU when none available (Count)
system.cpu.statFuBusy::FloatDiv                     0      0.00%     62.99% # attempts to use FU when none available (Count)
system.cpu.statFuBusy::FloatMisc                    0      0.00%     62.99% # attempts to use FU when none available (Count)
system.cpu.statFuBusy::FloatSqrt                    0      0.00%     62.99% # attempts to use FU when none available (Count)
system.cpu.statFuBusy::SimdAdd                      0      0.00%     62.99% # attempts to use FU when none available (Count)
system.cpu.statFuBusy::SimdAddAcc                   0      0.00%     62.99% # attempts to use FU when none available (Count)
system.cpu.statFuBusy::SimdAlu                      0      0.00%     62.99% # attempts to use FU when none available (Count)
system.cpu.statFuBusy::SimdCmp                      0      0.00%     62.99% # attempts to use FU when none available (Count)
system.cpu.statFuBusy::SimdCvt                      0      0.00%     62.99% # attempts to use FU when none available (Count)
system.cpu.statFuBusy::SimdMisc                     0      0.00%     62.99% # attempts to use FU when none available (Count)
system.cpu.statFuBusy::SimdMult                     0      0.00%     62.99% # attempts to use FU when none available (Count)
system.cpu.statFuBusy::SimdMultAcc                  0      0.00%     62.99% # attempts to use FU when none available (Count)
system.cpu.statFuBusy::SimdShift                    0      0.00%     62.99% # attempts to use FU when none available (Count)
system.cpu.statFuBusy::SimdShiftAcc                 0      0.00%     62.99% # attempts to use FU when none available (Count)
system.cpu.statFuBusy::SimdDiv                      0      0.00%     62.99% # attempts to use FU when none available (Count)
system.cpu.statFuBusy::SimdSqrt                     0      0.00%     62.99% # attempts to use FU when none available (Count)
system.cpu.statFuBusy::SimdFloatAdd                 0      0.00%     62.99% # attempts to use FU when none available (Count)
system.cpu.statFuBusy::SimdFloatAlu                 0      0.00%     62.99% # attempts to use FU when none available (Count)
system.cpu.statFuBusy::SimdFloatCmp                 0      0.00%     62.99% # attempts to use FU when none available (Count)
system.cpu.statFuBusy::SimdFloatCvt                 0      0.00%     62.99% # attempts to use FU when none available (Count)
system.cpu.statFuBusy::SimdFloatDiv                 0      0.00%     62.99% # attempts to use FU when none available (Count)
system.cpu.statFuBusy::SimdFloatMisc                0      0.00%     62.99% # attempts to use FU when none available (Count)
system.cpu.statFuBusy::SimdFloatMult                0      0.00%     62.99% # attempts to use FU when none available (Count)
system.cpu.statFuBusy::SimdFloatMultAcc             0      0.00%     62.99% # attempts to use FU when none available (Count)
system.cpu.statFuBusy::SimdFloatSqrt                0      0.00%     62.99% # attempts to use FU when none available (Count)
system.cpu.statFuBusy::SimdReduceAdd                0      0.00%     62.99% # attempts to use FU when none available (Count)
system.cpu.statFuBusy::SimdReduceAlu                0      0.00%     62.99% # attempts to use FU when none available (Count)
system.cpu.statFuBusy::SimdReduceCmp                0      0.00%     62.99% # attempts to use FU when none available (Count)
system.cpu.statFuBusy::SimdFloatReduceAdd            0      0.00%     62.99% # attempts to use FU when none available (Count)
system.cpu.statFuBusy::SimdFloatReduceCmp            0      0.00%     62.99% # attempts to use FU when none available (Count)
system.cpu.statFuBusy::SimdAes                      0      0.00%     62.99% # attempts to use FU when none available (Count)
system.cpu.statFuBusy::SimdAesMix                   0      0.00%     62.99% # attempts to use FU when none available (Count)
system.cpu.statFuBusy::SimdSha1Hash                 0      0.00%     62.99% # attempts to use FU when none available (Count)
system.cpu.statFuBusy::SimdSha1Hash2                0      0.00%     62.99% # attempts to use FU when none available (Count)
system.cpu.statFuBusy::SimdSha256Hash               0      0.00%     62.99% # attempts to use FU when none available (Count)
system.cpu.statFuBusy::SimdSha256Hash2              0      0.00%     62.99% # attempts to use FU when none available (Count)
system.cpu.statFuBusy::SimdShaSigma2                0      0.00%     62.99% # attempts to use FU when none available (Count)
system.cpu.statFuBusy::SimdShaSigma3                0      0.00%     62.99% # attempts to use FU when none available (Count)
system.cpu.statFuBusy::SimdPredAlu                  0      0.00%     62.99% # attempts to use FU when none available (Count)
system.cpu.statFuBusy::MemRead                1023552     25.17%     88.16% # attempts to use FU when none available (Count)
system.cpu.statFuBusy::MemWrite                457100     11.24%     99.40% # attempts to use FU when none available (Count)
system.cpu.statFuBusy::FloatMemRead             24239      0.60%    100.00% # attempts to use FU when none available (Count)
system.cpu.statFuBusy::FloatMemWrite                0      0.00%    100.00% # attempts to use FU when none available (Count)
system.cpu.statFuBusy::IprAccess                    0      0.00%    100.00% # attempts to use FU when none available (Count)
system.cpu.statFuBusy::InstPrefetch                 0      0.00%    100.00% # attempts to use FU when none available (Count)
system.cpu.statIssuedInstType_0::No_OpClass       494423      0.21%      0.21% # Number of instructions issued per FU type, per thread (Count)
system.cpu.statIssuedInstType_0::IntAlu     171388467     72.29%     72.49% # Number of instructions issued per FU type, per thread (Count)
system.cpu.statIssuedInstType_0::IntMult       784106      0.33%     72.82% # Number of instructions issued per FU type, per thread (Count)
system.cpu.statIssuedInstType_0::IntDiv        339529      0.14%     72.97% # Number of instructions issued per FU type, per thread (Count)
system.cpu.statIssuedInstType_0::FloatAdd        24239      0.01%     72.98% # Number of instructions issued per FU type, per thread (Count)
system.cpu.statIssuedInstType_0::FloatCmp            0      0.00%     72.98% # Number of instructions issued per FU type, per thread (Count)
system.cpu.statIssuedInstType_0::FloatCvt        24239      0.01%     72.99% # Number of instructions issued per FU type, per thread (Count)
system.cpu.statIssuedInstType_0::FloatMult        24239      0.01%     73.00% # Number of instructions issued per FU type, per thread (Count)
system.cpu.statIssuedInstType_0::FloatMultAcc            0      0.00%     73.00% # Number of instructions issued per FU type, per thread (Count)
system.cpu.statIssuedInstType_0::FloatDiv        48478      0.02%     73.02% # Number of instructions issued per FU type, per thread (Count)
system.cpu.statIssuedInstType_0::FloatMisc            0      0.00%     73.02% # Number of instructions issued per FU type, per thread (Count)
system.cpu.statIssuedInstType_0::FloatSqrt            0      0.00%     73.02% # Number of instructions issued per FU type, per thread (Count)
system.cpu.statIssuedInstType_0::SimdAdd            0      0.00%     73.02% # Number of instructions issued per FU type, per thread (Count)
system.cpu.statIssuedInstType_0::SimdAddAcc            0      0.00%     73.02% # Number of instructions issued per FU type, per thread (Count)
system.cpu.statIssuedInstType_0::SimdAlu            0      0.00%     73.02% # Number of instructions issued per FU type, per thread (Count)
system.cpu.statIssuedInstType_0::SimdCmp            0      0.00%     73.02% # Number of instructions issued per FU type, per thread (Count)
system.cpu.statIssuedInstType_0::SimdCvt            0      0.00%     73.02% # Number of instructions issued per FU type, per thread (Count)
system.cpu.statIssuedInstType_0::SimdMisc            0      0.00%     73.02% # Number of instructions issued per FU type, per thread (Count)
system.cpu.statIssuedInstType_0::SimdMult            0      0.00%     73.02% # Number of instructions issued per FU type, per thread (Count)
system.cpu.statIssuedInstType_0::SimdMultAcc            0      0.00%     73.02% # Number of instructions issued per FU type, per thread (Count)
system.cpu.statIssuedInstType_0::SimdShift            0      0.00%     73.02% # Number of instructions issued per FU type, per thread (Count)
system.cpu.statIssuedInstType_0::SimdShiftAcc            0      0.00%     73.02% # Number of instructions issued per FU type, per thread (Count)
system.cpu.statIssuedInstType_0::SimdDiv            0      0.00%     73.02% # Number of instructions issued per FU type, per thread (Count)
system.cpu.statIssuedInstType_0::SimdSqrt            0      0.00%     73.02% # Number of instructions issued per FU type, per thread (Count)
system.cpu.statIssuedInstType_0::SimdFloatAdd            0      0.00%     73.02% # Number of instructions issued per FU type, per thread (Count)
system.cpu.statIssuedInstType_0::SimdFloatAlu            0      0.00%     73.02% # Number of instructions issued per FU type, per thread (Count)
system.cpu.statIssuedInstType_0::SimdFloatCmp            0      0.00%     73.02% # Number of instructions issued per FU type, per thread (Count)
system.cpu.statIssuedInstType_0::SimdFloatCvt            0      0.00%     73.02% # Number of instructions issued per FU type, per thread (Count)
system.cpu.statIssuedInstType_0::SimdFloatDiv            0      0.00%     73.02% # Number of instructions issued per FU type, per thread (Count)
system.cpu.statIssuedInstType_0::SimdFloatMisc            0      0.00%     73.02% # Number of instructions issued per FU type, per thread (Count)
system.cpu.statIssuedInstType_0::SimdFloatMult            0      0.00%     73.02% # Number of instructions issued per FU type, per thread (Count)
system.cpu.statIssuedInstType_0::SimdFloatMultAcc            0      0.00%     73.02% # Number of instructions issued per FU type, per thread (Count)
system.cpu.statIssuedInstType_0::SimdFloatSqrt            0      0.00%     73.02% # Number of instructions issued per FU type, per thread (Count)
system.cpu.statIssuedInstType_0::SimdReduceAdd            0      0.00%     73.02% # Number of instructions issued per FU type, per thread (Count)
system.cpu.statIssuedInstType_0::SimdReduceAlu            0      0.00%     73.02% # Number of instructions issued per FU type, per thread (Count)
system.cpu.statIssuedInstType_0::SimdReduceCmp            0      0.00%     73.02% # Number of instructions issued per FU type, per thread (Count)
system.cpu.statIssuedInstType_0::SimdFloatReduceAdd            0      0.00%     73.02% # Number of instructions issued per FU type, per thread (Count)
system.cpu.statIssuedInstType_0::SimdFloatReduceCmp            0      0.00%     73.02% # Number of instructions issued per FU type, per thread (Count)
system.cpu.statIssuedInstType_0::SimdAes            0      0.00%     73.02% # Number of instructions issued per FU type, per thread (Count)
system.cpu.statIssuedInstType_0::SimdAesMix            0      0.00%     73.02% # Number of instructions issued per FU type, per thread (Count)
system.cpu.statIssuedInstType_0::SimdSha1Hash            0      0.00%     73.02% # Number of instructions issued per FU type, per thread (Count)
system.cpu.statIssuedInstType_0::SimdSha1Hash2            0      0.00%     73.02% # Number of instructions issued per FU type, per thread (Count)
system.cpu.statIssuedInstType_0::SimdSha256Hash            0      0.00%     73.02% # Number of instructions issued per FU type, per thread (Count)
system.cpu.statIssuedInstType_0::SimdSha256Hash2            0      0.00%     73.02% # Number of instructions issued per FU type, per thread (Count)
system.cpu.statIssuedInstType_0::SimdShaSigma2            0      0.00%     73.02% # Number of instructions issued per FU type, per thread (Count)
system.cpu.statIssuedInstType_0::SimdShaSigma3            0      0.00%     73.02% # Number of instructions issued per FU type, per thread (Count)
system.cpu.statIssuedInstType_0::SimdPredAlu            0      0.00%     73.02% # Number of instructions issued per FU type, per thread (Count)
system.cpu.statIssuedInstType_0::MemRead     38322496     16.16%     89.18% # Number of instructions issued per FU type, per thread (Count)
system.cpu.statIssuedInstType_0::MemWrite     25139758     10.60%     99.78% # Number of instructions issued per FU type, per thread (Count)
system.cpu.statIssuedInstType_0::FloatMemRead       291820      0.12%     99.91% # Number of instructions issued per FU type, per thread (Count)
system.cpu.statIssuedInstType_0::FloatMemWrite       218152      0.09%    100.00% # Number of instructions issued per FU type, per thread (Count)
system.cpu.statIssuedInstType_0::IprAccess            0      0.00%    100.00% # Number of instructions issued per FU type, per thread (Count)
system.cpu.statIssuedInstType_0::InstPrefetch            0      0.00%    100.00% # Number of instructions issued per FU type, per thread (Count)
system.cpu.statIssuedInstType_0::total      237099946                       # Number of instructions issued per FU type, per thread (Count)
system.cpu.issueRate                         2.368968                       # Inst issue rate ((Count/Cycle))
system.cpu.fuBusy                             4066349                       # FU busy when requested (Count)
system.cpu.fuBusyRate                        0.017150                       # FU busy rate (busy events/executed inst) ((Count/Count))
system.cpu.intInstQueueReads                577138394                       # Number of integer instruction queue reads (Count)
system.cpu.intInstQueueWrites               416219703                       # Number of integer instruction queue writes (Count)
system.cpu.intInstQueueWakeupAccesses       222582281                       # Number of integer instruction queue wakeup accesses (Count)
system.cpu.fpInstQueueReads                   2013745                       # Number of floating instruction queue reads (Count)
system.cpu.fpInstQueueWrites                  1143649                       # Number of floating instruction queue writes (Count)
system.cpu.fpInstQueueWakeupAccesses           994672                       # Number of floating instruction queue wakeup accesses (Count)
system.cpu.vecInstQueueReads                        0                       # Number of vector instruction queue reads (Count)
system.cpu.vecInstQueueWrites                       0                       # Number of vector instruction queue writes (Count)
system.cpu.vecInstQueueWakeupAccesses               0                       # Number of vector instruction queue wakeup accesses (Count)
system.cpu.intAluAccesses                   239652880                       # Number of integer alu accesses (Count)
system.cpu.fpAluAccesses                      1018992                       # Number of floating point alu accesses (Count)
system.cpu.vecAluAccesses                           0                       # Number of vector alu accesses (Count)
system.cpu.idleCycles                               0                       # Number of cycles IEW is idle (Cycle)
system.cpu.squashCycles                       3609919                       # Number of cycles IEW is squashing (Cycle)
system.cpu.blockCycles                       15032824                       # Number of cycles IEW is blocking (Cycle)
system.cpu.unblockCycles                        38893                       # Number of cycles IEW is unblocking (Cycle)
system.cpu.dispatchedInsts                  283577164                       # Number of instructions dispatched to IQ (Count)
system.cpu.dispSquashedInsts                  1811067                       # Number of squashed instructions skipped by dispatch (Count)
system.cpu.dispLoadInsts                     44445260                       # Number of dispatched load instructions (Count)
system.cpu.dispStoreInsts                    31249059                       # Number of dispatched store instructions (Count)
system.cpu.dispNonSpecInsts                    437035                       # Number of dispatched non-speculative instructions (Count)
system.cpu.iqFullEvents                         38891                       # Number of times the IQ has become full, causing a stall (Count)
system.cpu.lsqFullEvents                            0                       # Number of times the LSQ has become full, causing a stall (Count)
system.cpu.memOrderViolationEvents             133795                       # Number of memory order violations (Count)
system.cpu.predictedTakenIncorrect             655358                       # Number of branches that were predicted taken incorrectly (Count)
system.cpu.predictedNotTakenIncorrect         3724052                       # Number of branches that were predicted not taken incorrectly (Count)
system.cpu.branchMispredicts                  4379410                       # Number of branch mispredicts detected at execute (Count)
system.cpu.numInsts                         228210415                       # Number of executed instructions (Count)
system.cpu.numLoadInsts                      36230874                       # Number of load instructions executed (Count)
system.cpu.numSquashedInsts                   8889531                       # Number of squashed instructions skipped in execute (Count)
system.cpu.numSwp                                   0                       # Number of swp insts executed (Count)
system.cpu.numNop                                   0                       # Number of nop insts executed (Count)
system.cpu.numRefs                           60094011                       # Number of memory reference insts executed (Count)
system.cpu.numBranches                       21668668                       # Number of branches executed (Count)
system.cpu.numStoreInsts                     23863137                       # Number of stores executed (Count)
system.cpu.numRate                           2.280148                       # Inst execution rate ((Count/Cycle))
system.cpu.instsToCommit                    225927538                       # Cumulative count of insts sent to commit (Count)
system.cpu.writebackCount                   223576953                       # Cumulative count of insts written-back (Count)
system.cpu.producerInst                     162141801                       # Number of instructions producing a value (Count)
system.cpu.consumerInst                     261682113                       # Number of instructions consuming a value (Count)
system.cpu.wbRate                            2.233854                       # Insts written-back per cycle ((Count/Cycle))
system.cpu.wbFanout                          0.619614                       # Average fanout of values written-back ((Count/Count))
system.cpu.timesIdled                             339                       # Number of times that the entire CPU went into an idle state and unscheduled itself (Count)
system.cpu.idleCycles                           42040                       # Total number of cycles that the CPU has spent unscheduled due to idling (Cycle)
system.cpu.committedInsts                    81122161                       # Number of Instructions Simulated (Count)
system.cpu.committedOps                     149806690                       # Number of Ops (including micro ops) Simulated (Count)
system.cpu.cpi                               1.233766                       # CPI: Cycles Per Instruction ((Cycle/Count))
system.cpu.totalCpi                          1.233766                       # CPI: Total CPI of All Threads ((Cycle/Count))
system.cpu.ipc                               0.810526                       # IPC: Instructions Per Cycle ((Count/Cycle))
system.cpu.totalIpc                          0.810526                       # IPC: Total IPC of All Threads ((Count/Cycle))
system.cpu.intRegfileReads                  323355661                       # Number of integer regfile reads (Count)
system.cpu.intRegfileWrites                 179742384                       # Number of integer regfile writes (Count)
system.cpu.fpRegfileReads                     1163475                       # Number of floating regfile reads (Count)
system.cpu.fpRegfileWrites                     752281                       # Number of floating regfile writes (Count)
system.cpu.ccRegfileReads                    92323623                       # number of cc regfile reads (Count)
system.cpu.ccRegfileWrites                   63063820                       # number of cc regfile writes (Count)
system.cpu.miscRegfileReads                 108227130                       # number of misc regfile reads (Count)
system.cpu.miscRegfileWrites                   436308                       # number of misc regfile writes (Count)
system.cpu.MemDepUnit__0.insertedLoads       44445260                       # Number of loads inserted to the mem dependence unit. (Count)
system.cpu.MemDepUnit__0.insertedStores      31249059                       # Number of stores inserted to the mem dependence unit. (Count)
system.cpu.MemDepUnit__0.conflictingLoads      7084970                       # Number of conflicting loads. (Count)
system.cpu.MemDepUnit__0.conflictingStores      4460376                       # Number of conflicting stores. (Count)
system.cpu.MemDepUnit__1.insertedLoads              0                       # Number of loads inserted to the mem dependence unit. (Count)
system.cpu.MemDepUnit__1.insertedStores             0                       # Number of stores inserted to the mem dependence unit. (Count)
system.cpu.MemDepUnit__1.conflictingLoads            0                       # Number of conflicting loads. (Count)
system.cpu.MemDepUnit__1.conflictingStores            0                       # Number of conflicting stores. (Count)
system.cpu.MemDepUnit__2.insertedLoads              0                       # Number of loads inserted to the mem dependence unit. (Count)
system.cpu.MemDepUnit__2.insertedStores             0                       # Number of stores inserted to the mem dependence unit. (Count)
system.cpu.MemDepUnit__2.conflictingLoads            0                       # Number of conflicting loads. (Count)
system.cpu.MemDepUnit__2.conflictingStores            0                       # Number of conflicting stores. (Count)
system.cpu.MemDepUnit__3.insertedLoads              0                       # Number of loads inserted to the mem dependence unit. (Count)
system.cpu.MemDepUnit__3.insertedStores             0                       # Number of stores inserted to the mem dependence unit. (Count)
system.cpu.MemDepUnit__3.conflictingLoads            0                       # Number of conflicting loads. (Count)
system.cpu.MemDepUnit__3.conflictingStores            0                       # Number of conflicting stores. (Count)
system.cpu.branchPred.lookups                38559406                       # Number of BP lookups (Count)
system.cpu.branchPred.condPredicted          28549158                       # Number of conditional branches predicted (Count)
system.cpu.branchPred.condIncorrect           3429247                       # Number of conditional branches incorrect (Count)
system.cpu.branchPred.BTBLookups             12934004                       # Number of BTB lookups (Count)
system.cpu.branchPred.BTBHits                12577826                       # Number of BTB hits (Count)
system.cpu.branchPred.BTBHitRatio            0.972462                       # BTB Hit Ratio (Ratio)
system.cpu.branchPred.RASUsed                 2973673                       # Number of times the RAS was used to get a target. (Count)
system.cpu.branchPred.RASIncorrect              95022                       # Number of incorrect RAS predictions. (Count)
system.cpu.branchPred.indirectLookups          964502                       # Number of indirect predictor lookups. (Count)
system.cpu.branchPred.indirectHits             585129                       # Number of indirect target hits. (Count)
system.cpu.branchPred.indirectMisses           379373                       # Number of indirect misses. (Count)
system.cpu.branchPred.indirectMispredicted          103                       # Number of mispredicted indirect branches. (Count)
system.cpu.commit.commitSquashedInsts       133722200                       # The number of squashed insts skipped by commit (Count)
system.cpu.commit.commitNonSpecStalls          242394                       # The number of times commit has been forced to stall to communicate backwards (Count)
system.cpu.commit.branchMispredicts           3549217                       # The number of times a branch was mispredicted (Count)
system.cpu.commit.numCommittedDist::samples     81401488                       # Number of insts commited each cycle (Count)
system.cpu.commit.numCommittedDist::mean     1.840343                       # Number of insts commited each cycle (Count)
system.cpu.commit.numCommittedDist::stdev     2.490138                       # Number of insts commited each cycle (Count)
system.cpu.commit.numCommittedDist::underflows            0      0.00%      0.00% # Number of insts commited each cycle (Count)
system.cpu.commit.numCommittedDist::0        37471292     46.03%     46.03% # Number of insts commited each cycle (Count)
system.cpu.commit.numCommittedDist::1        13784804     16.93%     62.97% # Number of insts commited each cycle (Count)
system.cpu.commit.numCommittedDist::2         6760921      8.31%     71.27% # Number of insts commited each cycle (Count)
system.cpu.commit.numCommittedDist::3         7083616      8.70%     79.97% # Number of insts commited each cycle (Count)
system.cpu.commit.numCommittedDist::4         4362007      5.36%     85.33% # Number of insts commited each cycle (Count)
system.cpu.commit.numCommittedDist::5         2466940      3.03%     88.36% # Number of insts commited each cycle (Count)
system.cpu.commit.numCommittedDist::6         1416062      1.74%     90.10% # Number of insts commited each cycle (Count)
system.cpu.commit.numCommittedDist::7         1476672      1.81%     91.92% # Number of insts commited each cycle (Count)
system.cpu.commit.numCommittedDist::8         6579174      8.08%    100.00% # Number of insts commited each cycle (Count)
system.cpu.commit.numCommittedDist::overflows            0      0.00%    100.00% # Number of insts commited each cycle (Count)
system.cpu.commit.numCommittedDist::min_value            0                       # Number of insts commited each cycle (Count)
system.cpu.commit.numCommittedDist::max_value            8                       # Number of insts commited each cycle (Count)
system.cpu.commit.numCommittedDist::total     81401488                       # Number of insts commited each cycle (Count)
system.cpu.commit.instsCommitted             81122161                       # Number of instructions committed (Count)
system.cpu.commit.opsCommitted              149806690                       # Number of ops (including micro ops) committed (Count)
system.cpu.commit.memRefs                    40724057                       # Number of memory references committed (Count)
system.cpu.commit.loads                      23730455                       # Number of loads committed (Count)
system.cpu.commit.amos                              0                       # Number of atomic instructions committed (Count)
system.cpu.commit.membars                           0                       # Number of memory barriers committed (Count)
system.cpu.commit.branches                   16183261                       # Number of branches committed (Count)
system.cpu.commit.vectorInstructions                0                       # Number of committed Vector instructions. (Count)
system.cpu.commit.floating                     993799                       # Number of committed floating point instructions. (Count)
system.cpu.commit.integer                   148613972                       # Number of committed integer instructions. (Count)
system.cpu.commit.functionCalls               1528742                       # Number of function calls committed. (Count)
system.cpu.commit.committedInstType_0::No_OpClass        75992      0.05%      0.05% # Class of committed instruction (Count)
system.cpu.commit.committedInstType_0::IntAlu    107762111     71.93%     71.98% # Class of committed instruction (Count)
system.cpu.commit.committedInstType_0::IntMult       783933      0.52%     72.51% # Class of committed instruction (Count)
system.cpu.commit.committedInstType_0::IntDiv       339402      0.23%     72.73% # Class of committed instruction (Count)
system.cpu.commit.committedInstType_0::FloatAdd        24239      0.02%     72.75% # Class of committed instruction (Count)
system.cpu.commit.committedInstType_0::FloatCmp            0      0.00%     72.75% # Class of committed instruction (Count)
system.cpu.commit.committedInstType_0::FloatCvt        24239      0.02%     72.77% # Class of committed instruction (Count)
system.cpu.commit.committedInstType_0::FloatMult        24239      0.02%     72.78% # Class of committed instruction (Count)
system.cpu.commit.committedInstType_0::FloatMultAcc            0      0.00%     72.78% # Class of committed instruction (Count)
system.cpu.commit.committedInstType_0::FloatDiv        48478      0.03%     72.82% # Class of committed instruction (Count)
system.cpu.commit.committedInstType_0::FloatMisc            0      0.00%     72.82% # Class of committed instruction (Count)
system.cpu.commit.committedInstType_0::FloatSqrt            0      0.00%     72.82% # Class of committed instruction (Count)
system.cpu.commit.committedInstType_0::SimdAdd            0      0.00%     72.82% # Class of committed instruction (Count)
system.cpu.commit.committedInstType_0::SimdAddAcc            0      0.00%     72.82% # Class of committed instruction (Count)
system.cpu.commit.committedInstType_0::SimdAlu            0      0.00%     72.82% # Class of committed instruction (Count)
system.cpu.commit.committedInstType_0::SimdCmp            0      0.00%     72.82% # Class of committed instruction (Count)
system.cpu.commit.committedInstType_0::SimdCvt            0      0.00%     72.82% # Class of committed instruction (Count)
system.cpu.commit.committedInstType_0::SimdMisc            0      0.00%     72.82% # Class of committed instruction (Count)
system.cpu.commit.committedInstType_0::SimdMult            0      0.00%     72.82% # Class of committed instruction (Count)
system.cpu.commit.committedInstType_0::SimdMultAcc            0      0.00%     72.82% # Class of committed instruction (Count)
system.cpu.commit.committedInstType_0::SimdShift            0      0.00%     72.82% # Class of committed instruction (Count)
system.cpu.commit.committedInstType_0::SimdShiftAcc            0      0.00%     72.82% # Class of committed instruction (Count)
system.cpu.commit.committedInstType_0::SimdDiv            0      0.00%     72.82% # Class of committed instruction (Count)
system.cpu.commit.committedInstType_0::SimdSqrt            0      0.00%     72.82% # Class of committed instruction (Count)
system.cpu.commit.committedInstType_0::SimdFloatAdd            0      0.00%     72.82% # Class of committed instruction (Count)
system.cpu.commit.committedInstType_0::SimdFloatAlu            0      0.00%     72.82% # Class of committed instruction (Count)
system.cpu.commit.committedInstType_0::SimdFloatCmp            0      0.00%     72.82% # Class of committed instruction (Count)
system.cpu.commit.committedInstType_0::SimdFloatCvt            0      0.00%     72.82% # Class of committed instruction (Count)
system.cpu.commit.committedInstType_0::SimdFloatDiv            0      0.00%     72.82% # Class of committed instruction (Count)
system.cpu.commit.committedInstType_0::SimdFloatMisc            0      0.00%     72.82% # Class of committed instruction (Count)
system.cpu.commit.committedInstType_0::SimdFloatMult            0      0.00%     72.82% # Class of committed instruction (Count)
system.cpu.commit.committedInstType_0::SimdFloatMultAcc            0      0.00%     72.82% # Class of committed instruction (Count)
system.cpu.commit.committedInstType_0::SimdFloatSqrt            0      0.00%     72.82% # Class of committed instruction (Count)
system.cpu.commit.committedInstType_0::SimdReduceAdd            0      0.00%     72.82% # Class of committed instruction (Count)
system.cpu.commit.committedInstType_0::SimdReduceAlu            0      0.00%     72.82% # Class of committed instruction (Count)
system.cpu.commit.committedInstType_0::SimdReduceCmp            0      0.00%     72.82% # Class of committed instruction (Count)
system.cpu.commit.committedInstType_0::SimdFloatReduceAdd            0      0.00%     72.82% # Class of committed instruction (Count)
system.cpu.commit.committedInstType_0::SimdFloatReduceCmp            0      0.00%     72.82% # Class of committed instruction (Count)
system.cpu.commit.committedInstType_0::SimdAes            0      0.00%     72.82% # Class of committed instruction (Count)
system.cpu.commit.committedInstType_0::SimdAesMix            0      0.00%     72.82% # Class of committed instruction (Count)
system.cpu.commit.committedInstType_0::SimdSha1Hash            0      0.00%     72.82% # Class of committed instruction (Count)
system.cpu.commit.committedInstType_0::SimdSha1Hash2            0      0.00%     72.82% # Class of committed instruction (Count)
system.cpu.commit.committedInstType_0::SimdSha256Hash            0      0.00%     72.82% # Class of committed instruction (Count)
system.cpu.commit.committedInstType_0::SimdSha256Hash2            0      0.00%     72.82% # Class of committed instruction (Count)
system.cpu.commit.committedInstType_0::SimdShaSigma2            0      0.00%     72.82% # Class of committed instruction (Count)
system.cpu.commit.committedInstType_0::SimdShaSigma3            0      0.00%     72.82% # Class of committed instruction (Count)
system.cpu.commit.committedInstType_0::SimdPredAlu            0      0.00%     72.82% # Class of committed instruction (Count)
system.cpu.commit.committedInstType_0::MemRead     23439587     15.65%     88.46% # Class of committed instruction (Count)
system.cpu.commit.committedInstType_0::MemWrite     16775451     11.20%     99.66% # Class of committed instruction (Count)
system.cpu.commit.committedInstType_0::FloatMemRead       290868      0.19%     99.85% # Class of committed instruction (Count)
system.cpu.commit.committedInstType_0::FloatMemWrite       218151      0.15%    100.00% # Class of committed instruction (Count)
system.cpu.commit.committedInstType_0::IprAccess            0      0.00%    100.00% # Class of committed instruction (Count)
system.cpu.commit.committedInstType_0::InstPrefetch            0      0.00%    100.00% # Class of committed instruction (Count)
system.cpu.commit.committedInstType_0::total    149806690                       # Class of committed instruction (Count)
system.cpu.commit.commitEligibleSamples       6579174                       # number cycles where commit BW limit reached (Cycle)
system.cpu.dcache.demandHits::cpu.data       44002110                       # number of demand (read+write) hits (Count)
system.cpu.dcache.demandHits::total          44002110                       # number of demand (read+write) hits (Count)
system.cpu.dcache.overallHits::cpu.data      44002110                       # number of overall hits (Count)
system.cpu.dcache.overallHits::total         44002110                       # number of overall hits (Count)
system.cpu.dcache.demandMisses::cpu.data          232                       # number of demand (read+write) misses (Count)
system.cpu.dcache.demandMisses::total             232                       # number of demand (read+write) misses (Count)
system.cpu.dcache.overallMisses::cpu.data          232                       # number of overall misses (Count)
system.cpu.dcache.overallMisses::total            232                       # number of overall misses (Count)
system.cpu.dcache.demandMissLatency::cpu.data     17687500                       # number of demand (read+write) miss ticks (Tick)
system.cpu.dcache.demandMissLatency::total     17687500                       # number of demand (read+write) miss ticks (Tick)
system.cpu.dcache.overallMissLatency::cpu.data     17687500                       # number of overall miss ticks (Tick)
system.cpu.dcache.overallMissLatency::total     17687500                       # number of overall miss ticks (Tick)
system.cpu.dcache.demandAccesses::cpu.data     44002342                       # number of demand (read+write) accesses (Count)
system.cpu.dcache.demandAccesses::total      44002342                       # number of demand (read+write) accesses (Count)
system.cpu.dcache.overallAccesses::cpu.data     44002342                       # number of overall (read+write) accesses (Count)
system.cpu.dcache.overallAccesses::total     44002342                       # number of overall (read+write) accesses (Count)
system.cpu.dcache.demandMissRate::cpu.data     0.000005                       # miss rate for demand accesses (Ratio)
system.cpu.dcache.demandMissRate::total      0.000005                       # miss rate for demand accesses (Ratio)
system.cpu.dcache.overallMissRate::cpu.data     0.000005                       # miss rate for overall accesses (Ratio)
system.cpu.dcache.overallMissRate::total     0.000005                       # miss rate for overall accesses (Ratio)
system.cpu.dcache.demandAvgMissLatency::cpu.data 76239.224138                       # average overall miss latency ((Cycle/Count))
system.cpu.dcache.demandAvgMissLatency::total 76239.224138                       # average overall miss latency ((Cycle/Count))
system.cpu.dcache.overallAvgMissLatency::cpu.data 76239.224138                       # average overall miss latency ((Cycle/Count))
system.cpu.dcache.overallAvgMissLatency::total 76239.224138                       # average overall miss latency ((Cycle/Count))
system.cpu.dcache.blockedCycles::no_mshrs          311                       # number of cycles access was blocked (Cycle)
system.cpu.dcache.blockedCycles::no_targets            0                       # number of cycles access was blocked (Cycle)
system.cpu.dcache.blockedCauses::no_mshrs            8                       # number of times access was blocked (Count)
system.cpu.dcache.blockedCauses::no_targets            0                       # number of times access was blocked (Count)
system.cpu.dcache.avgBlocked::no_mshrs      38.875000                       # average number of cycles each access was blocked ((Cycle/Count))
system.cpu.dcache.avgBlocked::no_targets          nan                       # average number of cycles each access was blocked ((Cycle/Count))
system.cpu.dcache.demandMshrHits::cpu.data           84                       # number of demand (read+write) MSHR hits (Count)
system.cpu.dcache.demandMshrHits::total            84                       # number of demand (read+write) MSHR hits (Count)
system.cpu.dcache.overallMshrHits::cpu.data           84                       # number of overall MSHR hits (Count)
system.cpu.dcache.overallMshrHits::total           84                       # number of overall MSHR hits (Count)
system.cpu.dcache.demandMshrMisses::cpu.data          148                       # number of demand (read+write) MSHR misses (Count)
system.cpu.dcache.demandMshrMisses::total          148                       # number of demand (read+write) MSHR misses (Count)
system.cpu.dcache.overallMshrMisses::cpu.data          148                       # number of overall MSHR misses (Count)
system.cpu.dcache.overallMshrMisses::total          148                       # number of overall MSHR misses (Count)
system.cpu.dcache.demandMshrMissLatency::cpu.data     11983000                       # number of demand (read+write) MSHR miss ticks (Tick)
system.cpu.dcache.demandMshrMissLatency::total     11983000                       # number of demand (read+write) MSHR miss ticks (Tick)
system.cpu.dcache.overallMshrMissLatency::cpu.data     11983000                       # number of overall MSHR miss ticks (Tick)
system.cpu.dcache.overallMshrMissLatency::total     11983000                       # number of overall MSHR miss ticks (Tick)
system.cpu.dcache.demandMshrMissRate::cpu.data     0.000003                       # mshr miss ratio for demand accesses (Ratio)
system.cpu.dcache.demandMshrMissRate::total     0.000003                       # mshr miss ratio for demand accesses (Ratio)
system.cpu.dcache.overallMshrMissRate::cpu.data     0.000003                       # mshr miss ratio for overall accesses (Ratio)
system.cpu.dcache.overallMshrMissRate::total     0.000003                       # mshr miss ratio for overall accesses (Ratio)
system.cpu.dcache.demandAvgMshrMissLatency::cpu.data 80966.216216                       # average overall mshr miss latency ((Cycle/Count))
system.cpu.dcache.demandAvgMshrMissLatency::total 80966.216216                       # average overall mshr miss latency ((Cycle/Count))
system.cpu.dcache.overallAvgMshrMissLatency::cpu.data 80966.216216                       # average overall mshr miss latency ((Cycle/Count))
system.cpu.dcache.overallAvgMshrMissLatency::total 80966.216216                       # average overall mshr miss latency ((Cycle/Count))
system.cpu.dcache.replacements                      1                       # number of replacements (Count)
system.cpu.dcache.ReadReq.hits::cpu.data     27008570                       # number of ReadReq hits (Count)
system.cpu.dcache.ReadReq.hits::total        27008570                       # number of ReadReq hits (Count)
system.cpu.dcache.ReadReq.misses::cpu.data          170                       # number of ReadReq misses (Count)
system.cpu.dcache.ReadReq.misses::total           170                       # number of ReadReq misses (Count)
system.cpu.dcache.ReadReq.missLatency::cpu.data     12909000                       # number of ReadReq miss ticks (Tick)
system.cpu.dcache.ReadReq.missLatency::total     12909000                       # number of ReadReq miss ticks (Tick)
system.cpu.dcache.ReadReq.accesses::cpu.data     27008740                       # number of ReadReq accesses(hits+misses) (Count)
system.cpu.dcache.ReadReq.accesses::total     27008740                       # number of ReadReq accesses(hits+misses) (Count)
system.cpu.dcache.ReadReq.missRate::cpu.data     0.000006                       # miss rate for ReadReq accesses (Ratio)
system.cpu.dcache.ReadReq.missRate::total     0.000006                       # miss rate for ReadReq accesses (Ratio)
system.cpu.dcache.ReadReq.avgMissLatency::cpu.data 75935.294118                       # average ReadReq miss latency ((Tick/Count))
system.cpu.dcache.ReadReq.avgMissLatency::total 75935.294118                       # average ReadReq miss latency ((Tick/Count))
system.cpu.dcache.ReadReq.mshrHits::cpu.data           82                       # number of ReadReq MSHR hits (Count)
system.cpu.dcache.ReadReq.mshrHits::total           82                       # number of ReadReq MSHR hits (Count)
system.cpu.dcache.ReadReq.mshrMisses::cpu.data           88                       # number of ReadReq MSHR misses (Count)
system.cpu.dcache.ReadReq.mshrMisses::total           88                       # number of ReadReq MSHR misses (Count)
system.cpu.dcache.ReadReq.mshrMissLatency::cpu.data      7392500                       # number of ReadReq MSHR miss ticks (Tick)
system.cpu.dcache.ReadReq.mshrMissLatency::total      7392500                       # number of ReadReq MSHR miss ticks (Tick)
system.cpu.dcache.ReadReq.mshrMissRate::cpu.data     0.000003                       # mshr miss rate for ReadReq accesses (Ratio)
system.cpu.dcache.ReadReq.mshrMissRate::total     0.000003                       # mshr miss rate for ReadReq accesses (Ratio)
system.cpu.dcache.ReadReq.avgMshrMissLatency::cpu.data 84005.681818                       # average ReadReq mshr miss latency ((Tick/Count))
system.cpu.dcache.ReadReq.avgMshrMissLatency::total 84005.681818                       # average ReadReq mshr miss latency ((Tick/Count))
system.cpu.dcache.WriteReq.hits::cpu.data     16993540                       # number of WriteReq hits (Count)
system.cpu.dcache.WriteReq.hits::total       16993540                       # number of WriteReq hits (Count)
system.cpu.dcache.WriteReq.misses::cpu.data           62                       # number of WriteReq misses (Count)
system.cpu.dcache.WriteReq.misses::total           62                       # number of WriteReq misses (Count)
system.cpu.dcache.WriteReq.missLatency::cpu.data      4778500                       # number of WriteReq miss ticks (Tick)
system.cpu.dcache.WriteReq.missLatency::total      4778500                       # number of WriteReq miss ticks (Tick)
system.cpu.dcache.WriteReq.accesses::cpu.data     16993602                       # number of WriteReq accesses(hits+misses) (Count)
system.cpu.dcache.WriteReq.accesses::total     16993602                       # number of WriteReq accesses(hits+misses) (Count)
system.cpu.dcache.WriteReq.missRate::cpu.data     0.000004                       # miss rate for WriteReq accesses (Ratio)
system.cpu.dcache.WriteReq.missRate::total     0.000004                       # miss rate for WriteReq accesses (Ratio)
system.cpu.dcache.WriteReq.avgMissLatency::cpu.data 77072.580645                       # average WriteReq miss latency ((Tick/Count))
system.cpu.dcache.WriteReq.avgMissLatency::total 77072.580645                       # average WriteReq miss latency ((Tick/Count))
system.cpu.dcache.WriteReq.mshrHits::cpu.data            2                       # number of WriteReq MSHR hits (Count)
system.cpu.dcache.WriteReq.mshrHits::total            2                       # number of WriteReq MSHR hits (Count)
system.cpu.dcache.WriteReq.mshrMisses::cpu.data           60                       # number of WriteReq MSHR misses (Count)
system.cpu.dcache.WriteReq.mshrMisses::total           60                       # number of WriteReq MSHR misses (Count)
system.cpu.dcache.WriteReq.mshrMissLatency::cpu.data      4590500                       # number of WriteReq MSHR miss ticks (Tick)
system.cpu.dcache.WriteReq.mshrMissLatency::total      4590500                       # number of WriteReq MSHR miss ticks (Tick)
system.cpu.dcache.WriteReq.mshrMissRate::cpu.data     0.000004                       # mshr miss rate for WriteReq accesses (Ratio)
system.cpu.dcache.WriteReq.mshrMissRate::total     0.000004                       # mshr miss rate for WriteReq accesses (Ratio)
system.cpu.dcache.WriteReq.avgMshrMissLatency::cpu.data 76508.333333                       # average WriteReq mshr miss latency ((Tick/Count))
system.cpu.dcache.WriteReq.avgMshrMissLatency::total 76508.333333                       # average WriteReq mshr miss latency ((Tick/Count))
system.cpu.dcache.power_state.pwrStateResidencyTicks::UNDEFINED  50042884500                       # Cumulative time (in ticks) in various power states (Tick)
system.cpu.dcache.tags.tagsInUse           131.164476                       # Average ticks per tags in use ((Tick/Count))
system.cpu.dcache.tags.totalRefs             44002258                       # Total number of references to valid blocks. (Count)
system.cpu.dcache.tags.sampledRefs                143                       # Sample count of references to valid blocks. (Count)
system.cpu.dcache.tags.avgRefs           307708.097902                       # Average number of references to valid blocks. ((Count/Count))
system.cpu.dcache.tags.warmupTick              176500                       # The tick when the warmup percentage was hit. (Tick)
system.cpu.dcache.tags.occupancies::cpu.data   131.164476                       # Average occupied blocks per tick, per requestor ((Count/Tick))
system.cpu.dcache.tags.avgOccs::cpu.data     0.256181                       # Average percentage of cache occupancy ((Ratio/Tick))
system.cpu.dcache.tags.avgOccs::total        0.256181                       # Average percentage of cache occupancy ((Ratio/Tick))
system.cpu.dcache.tags.occupanciesTaskId::1024          142                       # Occupied blocks per task id (Count)
system.cpu.dcache.tags.ageTaskId_1024::0           10                       # Occupied blocks per task id, per block age (Count)
system.cpu.dcache.tags.ageTaskId_1024::4          132                       # Occupied blocks per task id, per block age (Count)
system.cpu.dcache.tags.ratioOccsTaskId::1024     0.277344                       # Ratio of occupied blocks and all blocks, per task id (Ratio)
system.cpu.dcache.tags.tagAccesses          176009511                       # Number of tag accesses (Count)
system.cpu.dcache.tags.dataAccesses         176009511                       # Number of data accesses (Count)
system.cpu.dcache.tags.power_state.pwrStateResidencyTicks::UNDEFINED  50042884500                       # Cumulative time (in ticks) in various power states (Tick)
system.cpu.decode.idleCycles                 23402643                       # Number of cycles decode is idle (Cycle)
system.cpu.decode.blockedCycles              23090116                       # Number of cycles decode is blocked (Cycle)
system.cpu.decode.runCycles                  46228568                       # Number of cycles decode is running (Cycle)
system.cpu.decode.unblockCycles               3712484                       # Number of cycles decode is unblocking (Cycle)
system.cpu.decode.squashCycles                3609919                       # Number of cycles decode is squashing (Cycle)
system.cpu.decode.branchResolved             11957201                       # Number of times decode resolved a branch (Count)
system.cpu.decode.branchMispred                 49160                       # Number of times decode detected a branch misprediction (Count)
system.cpu.decode.decodedInsts              334874105                       # Number of instructions handled by decode (Count)
system.cpu.decode.squashedInsts                196151                       # Number of squashed instructions handled by decode (Count)
system.cpu.dtb_walker_cache.blockedCycles::no_mshrs            0                       # number of cycles access was blocked (Cycle)
system.cpu.dtb_walker_cache.blockedCycles::no_targets            0                       # number of cycles access was blocked (Cycle)
system.cpu.dtb_walker_cache.blockedCauses::no_mshrs            0                       # number of times access was blocked (Count)
system.cpu.dtb_walker_cache.blockedCauses::no_targets            0                       # number of times access was blocked (Count)
system.cpu.dtb_walker_cache.avgBlocked::no_mshrs          nan                       # average number of cycles each access was blocked ((Cycle/Count))
system.cpu.dtb_walker_cache.avgBlocked::no_targets          nan                       # average number of cycles each access was blocked ((Cycle/Count))
system.cpu.dtb_walker_cache.replacements            0                       # number of replacements (Count)
system.cpu.dtb_walker_cache.power_state.pwrStateResidencyTicks::UNDEFINED  50042884500                       # Cumulative time (in ticks) in various power states (Tick)
system.cpu.dtb_walker_cache.tags.tagsInUse            0                       # Average ticks per tags in use ((Tick/Count))
system.cpu.dtb_walker_cache.tags.totalRefs            0                       # Total number of references to valid blocks. (Count)
system.cpu.dtb_walker_cache.tags.sampledRefs            0                       # Sample count of references to valid blocks. (Count)
system.cpu.dtb_walker_cache.tags.avgRefs          nan                       # Average number of references to valid blocks. ((Count/Count))
system.cpu.dtb_walker_cache.tags.warmupTick            0                       # The tick when the warmup percentage was hit. (Tick)
system.cpu.dtb_walker_cache.tags.tagAccesses            0                       # Number of tag accesses (Count)
system.cpu.dtb_walker_cache.tags.dataAccesses            0                       # Number of data accesses (Count)
system.cpu.dtb_walker_cache.tags.power_state.pwrStateResidencyTicks::UNDEFINED  50042884500                       # Cumulative time (in ticks) in various power states (Tick)
system.cpu.fetch.icacheStallCycles           28845851                       # Number of cycles fetch is stalled on an Icache miss (Cycle)
system.cpu.fetch.insts                      193030594                       # Number of instructions fetch has processed (Count)
system.cpu.fetch.branches                    38559406                       # Number of branches that fetch encountered (Count)
system.cpu.fetch.predictedBranches           16136628                       # Number of branches that fetch has predicted taken (Count)
system.cpu.fetch.cycles                      65337392                       # Number of cycles fetch has run and was not squashing or blocked (Cycle)
system.cpu.fetch.squashCycles                 7269080                       # Number of cycles fetch has spent squashing (Cycle)
system.cpu.fetch.miscStallCycles               193087                       # Number of cycles fetch has spent waiting on interrupts, or bad addresses, or out of MSHRs (Cycle)
system.cpu.fetch.pendingTrapStallCycles       2032651                       # Number of stall cycles due to pending traps (Cycle)
system.cpu.fetch.pendingQuiesceStallCycles          188                       # Number of stall cycles due to pending quiesce instructions (Cycle)
system.cpu.fetch.icacheWaitRetryStallCycles           21                       # Number of stall cycles due to full MSHR (Cycle)
system.cpu.fetch.cacheLines                  26801263                       # Number of cache lines fetched (Count)
system.cpu.fetch.icacheSquashes               1086477                       # Number of outstanding Icache misses that were squashed (Count)
system.cpu.fetch.nisnDist::samples          100043730                       # Number of instructions fetched each cycle (Total) (Count)
system.cpu.fetch.nisnDist::mean              3.555024                       # Number of instructions fetched each cycle (Total) (Count)
system.cpu.fetch.nisnDist::stdev             3.581642                       # Number of instructions fetched each cycle (Total) (Count)
system.cpu.fetch.nisnDist::underflows               0      0.00%      0.00% # Number of instructions fetched each cycle (Total) (Count)
system.cpu.fetch.nisnDist::0                 42937546     42.92%     42.92% # Number of instructions fetched each cycle (Total) (Count)
system.cpu.fetch.nisnDist::1                  3926043      3.92%     46.84% # Number of instructions fetched each cycle (Total) (Count)
system.cpu.fetch.nisnDist::2                  3167925      3.17%     50.01% # Number of instructions fetched each cycle (Total) (Count)
system.cpu.fetch.nisnDist::3                  4015576      4.01%     54.02% # Number of instructions fetched each cycle (Total) (Count)
system.cpu.fetch.nisnDist::4                  3592356      3.59%     57.61% # Number of instructions fetched each cycle (Total) (Count)
system.cpu.fetch.nisnDist::5                  3308278      3.31%     60.92% # Number of instructions fetched each cycle (Total) (Count)
system.cpu.fetch.nisnDist::6                  3813142      3.81%     64.73% # Number of instructions fetched each cycle (Total) (Count)
system.cpu.fetch.nisnDist::7                  2703345      2.70%     67.43% # Number of instructions fetched each cycle (Total) (Count)
system.cpu.fetch.nisnDist::8                 32579519     32.57%    100.00% # Number of instructions fetched each cycle (Total) (Count)
system.cpu.fetch.nisnDist::overflows                0      0.00%    100.00% # Number of instructions fetched each cycle (Total) (Count)
system.cpu.fetch.nisnDist::min_value                0                       # Number of instructions fetched each cycle (Total) (Count)
system.cpu.fetch.nisnDist::max_value                8                       # Number of instructions fetched each cycle (Total) (Count)
system.cpu.fetch.nisnDist::total            100043730                       # Number of instructions fetched each cycle (Total) (Count)
system.cpu.fetch.branchRate                  0.385264                       # Number of branch fetches per cycle (Ratio)
system.cpu.fetch.rate                        1.928652                       # Number of inst fetches per cycle ((Count/Cycle))
system.cpu.icache.demandHits::cpu.inst       26800502                       # number of demand (read+write) hits (Count)
system.cpu.icache.demandHits::total          26800502                       # number of demand (read+write) hits (Count)
system.cpu.icache.overallHits::cpu.inst      26800502                       # number of overall hits (Count)
system.cpu.icache.overallHits::total         26800502                       # number of overall hits (Count)
system.cpu.icache.demandMisses::cpu.inst          761                       # number of demand (read+write) misses (Count)
system.cpu.icache.demandMisses::total             761                       # number of demand (read+write) misses (Count)
system.cpu.icache.overallMisses::cpu.inst          761                       # number of overall misses (Count)
system.cpu.icache.overallMisses::total            761                       # number of overall misses (Count)
system.cpu.icache.demandMissLatency::cpu.inst     56355000                       # number of demand (read+write) miss ticks (Tick)
system.cpu.icache.demandMissLatency::total     56355000                       # number of demand (read+write) miss ticks (Tick)
system.cpu.icache.overallMissLatency::cpu.inst     56355000                       # number of overall miss ticks (Tick)
system.cpu.icache.overallMissLatency::total     56355000                       # number of overall miss ticks (Tick)
system.cpu.icache.demandAccesses::cpu.inst     26801263                       # number of demand (read+write) accesses (Count)
system.cpu.icache.demandAccesses::total      26801263                       # number of demand (read+write) accesses (Count)
system.cpu.icache.overallAccesses::cpu.inst     26801263                       # number of overall (read+write) accesses (Count)
system.cpu.icache.overallAccesses::total     26801263                       # number of overall (read+write) accesses (Count)
system.cpu.icache.demandMissRate::cpu.inst     0.000028                       # miss rate for demand accesses (Ratio)
system.cpu.icache.demandMissRate::total      0.000028                       # miss rate for demand accesses (Ratio)
system.cpu.icache.overallMissRate::cpu.inst     0.000028                       # miss rate for overall accesses (Ratio)
system.cpu.icache.overallMissRate::total     0.000028                       # miss rate for overall accesses (Ratio)
system.cpu.icache.demandAvgMissLatency::cpu.inst 74053.876478                       # average overall miss latency ((Cycle/Count))
system.cpu.icache.demandAvgMissLatency::total 74053.876478                       # average overall miss latency ((Cycle/Count))
system.cpu.icache.overallAvgMissLatency::cpu.inst 74053.876478                       # average overall miss latency ((Cycle/Count))
system.cpu.icache.overallAvgMissLatency::total 74053.876478                       # average overall miss latency ((Cycle/Count))
system.cpu.icache.blockedCycles::no_mshrs          563                       # number of cycles access was blocked (Cycle)
system.cpu.icache.blockedCycles::no_targets            0                       # number of cycles access was blocked (Cycle)
system.cpu.icache.blockedCauses::no_mshrs            2                       # number of times access was blocked (Count)
system.cpu.icache.blockedCauses::no_targets            0                       # number of times access was blocked (Count)
system.cpu.icache.avgBlocked::no_mshrs     281.500000                       # average number of cycles each access was blocked ((Cycle/Count))
system.cpu.icache.avgBlocked::no_targets          nan                       # average number of cycles each access was blocked ((Cycle/Count))
system.cpu.icache.writebacks::writebacks          101                       # number of writebacks (Count)
system.cpu.icache.writebacks::total               101                       # number of writebacks (Count)
system.cpu.icache.demandMshrHits::cpu.inst          223                       # number of demand (read+write) MSHR hits (Count)
system.cpu.icache.demandMshrHits::total           223                       # number of demand (read+write) MSHR hits (Count)
system.cpu.icache.overallMshrHits::cpu.inst          223                       # number of overall MSHR hits (Count)
system.cpu.icache.overallMshrHits::total          223                       # number of overall MSHR hits (Count)
system.cpu.icache.demandMshrMisses::cpu.inst          538                       # number of demand (read+write) MSHR misses (Count)
system.cpu.icache.demandMshrMisses::total          538                       # number of demand (read+write) MSHR misses (Count)
system.cpu.icache.overallMshrMisses::cpu.inst          538                       # number of overall MSHR misses (Count)
system.cpu.icache.overallMshrMisses::total          538                       # number of overall MSHR misses (Count)
system.cpu.icache.demandMshrMissLatency::cpu.inst     42995000                       # number of demand (read+write) MSHR miss ticks (Tick)
system.cpu.icache.demandMshrMissLatency::total     42995000                       # number of demand (read+write) MSHR miss ticks (Tick)
system.cpu.icache.overallMshrMissLatency::cpu.inst     42995000                       # number of overall MSHR miss ticks (Tick)
system.cpu.icache.overallMshrMissLatency::total     42995000                       # number of overall MSHR miss ticks (Tick)
system.cpu.icache.demandMshrMissRate::cpu.inst     0.000020                       # mshr miss ratio for demand accesses (Ratio)
system.cpu.icache.demandMshrMissRate::total     0.000020                       # mshr miss ratio for demand accesses (Ratio)
system.cpu.icache.overallMshrMissRate::cpu.inst     0.000020                       # mshr miss ratio for overall accesses (Ratio)
system.cpu.icache.overallMshrMissRate::total     0.000020                       # mshr miss ratio for overall accesses (Ratio)
system.cpu.icache.demandAvgMshrMissLatency::cpu.inst 79916.356877                       # average overall mshr miss latency ((Cycle/Count))
system.cpu.icache.demandAvgMshrMissLatency::total 79916.356877                       # average overall mshr miss latency ((Cycle/Count))
system.cpu.icache.overallAvgMshrMissLatency::cpu.inst 79916.356877                       # average overall mshr miss latency ((Cycle/Count))
system.cpu.icache.overallAvgMshrMissLatency::total 79916.356877                       # average overall mshr miss latency ((Cycle/Count))
system.cpu.icache.replacements                    101                       # number of replacements (Count)
system.cpu.icache.ReadReq.hits::cpu.inst     26800502                       # number of ReadReq hits (Count)
system.cpu.icache.ReadReq.hits::total        26800502                       # number of ReadReq hits (Count)
system.cpu.icache.ReadReq.misses::cpu.inst          761                       # number of ReadReq misses (Count)
system.cpu.icache.ReadReq.misses::total           761                       # number of ReadReq misses (Count)
system.cpu.icache.ReadReq.missLatency::cpu.inst     56355000                       # number of ReadReq miss ticks (Tick)
system.cpu.icache.ReadReq.missLatency::total     56355000                       # number of ReadReq miss ticks (Tick)
system.cpu.icache.ReadReq.accesses::cpu.inst     26801263                       # number of ReadReq accesses(hits+misses) (Count)
system.cpu.icache.ReadReq.accesses::total     26801263                       # number of ReadReq accesses(hits+misses) (Count)
system.cpu.icache.ReadReq.missRate::cpu.inst     0.000028                       # miss rate for ReadReq accesses (Ratio)
system.cpu.icache.ReadReq.missRate::total     0.000028                       # miss rate for ReadReq accesses (Ratio)
system.cpu.icache.ReadReq.avgMissLatency::cpu.inst 74053.876478                       # average ReadReq miss latency ((Tick/Count))
system.cpu.icache.ReadReq.avgMissLatency::total 74053.876478                       # average ReadReq miss latency ((Tick/Count))
system.cpu.icache.ReadReq.mshrHits::cpu.inst          223                       # number of ReadReq MSHR hits (Count)
system.cpu.icache.ReadReq.mshrHits::total          223                       # number of ReadReq MSHR hits (Count)
system.cpu.icache.ReadReq.mshrMisses::cpu.inst          538                       # number of ReadReq MSHR misses (Count)
system.cpu.icache.ReadReq.mshrMisses::total          538                       # number of ReadReq MSHR misses (Count)
system.cpu.icache.ReadReq.mshrMissLatency::cpu.inst     42995000                       # number of ReadReq MSHR miss ticks (Tick)
system.cpu.icache.ReadReq.mshrMissLatency::total     42995000                       # number of ReadReq MSHR miss ticks (Tick)
system.cpu.icache.ReadReq.mshrMissRate::cpu.inst     0.000020                       # mshr miss rate for ReadReq accesses (Ratio)
system.cpu.icache.ReadReq.mshrMissRate::total     0.000020                       # mshr miss rate for ReadReq accesses (Ratio)
system.cpu.icache.ReadReq.avgMshrMissLatency::cpu.inst 79916.356877                       # average ReadReq mshr miss latency ((Tick/Count))
system.cpu.icache.ReadReq.avgMshrMissLatency::total 79916.356877                       # average ReadReq mshr miss latency ((Tick/Count))
system.cpu.icache.power_state.pwrStateResidencyTicks::UNDEFINED  50042884500                       # Cumulative time (in ticks) in various power states (Tick)
system.cpu.icache.tags.tagsInUse           416.419198                       # Average ticks per tags in use ((Tick/Count))
system.cpu.icache.tags.totalRefs             26801038                       # Total number of references to valid blocks. (Count)
system.cpu.icache.tags.sampledRefs                536                       # Sample count of references to valid blocks. (Count)
system.cpu.icache.tags.avgRefs           50001.936567                       # Average number of references to valid blocks. ((Count/Count))
system.cpu.icache.tags.warmupTick               87500                       # The tick when the warmup percentage was hit. (Tick)
system.cpu.icache.tags.occupancies::cpu.inst   416.419198                       # Average occupied blocks per tick, per requestor ((Count/Tick))
system.cpu.icache.tags.avgOccs::cpu.inst     0.813319                       # Average percentage of cache occupancy ((Ratio/Tick))
system.cpu.icache.tags.avgOccs::total        0.813319                       # Average percentage of cache occupancy ((Ratio/Tick))
system.cpu.icache.tags.occupanciesTaskId::1024          430                       # Occupied blocks per task id (Count)
system.cpu.icache.tags.ageTaskId_1024::0           36                       # Occupied blocks per task id, per block age (Count)
system.cpu.icache.tags.ageTaskId_1024::4          394                       # Occupied blocks per task id, per block age (Count)
system.cpu.icache.tags.ratioOccsTaskId::1024     0.839844                       # Ratio of occupied blocks and all blocks, per task id (Ratio)
system.cpu.icache.tags.tagAccesses          107205588                       # Number of tag accesses (Count)
system.cpu.icache.tags.dataAccesses         107205588                       # Number of data accesses (Count)
system.cpu.icache.tags.power_state.pwrStateResidencyTicks::UNDEFINED  50042884500                       # Cumulative time (in ticks) in various power states (Tick)
system.cpu.interrupts.clk_domain.clock           8000                       # Clock period in ticks (Tick)
system.cpu.itb_walker_cache.blockedCycles::no_mshrs            0                       # number of cycles access was blocked (Cycle)
system.cpu.itb_walker_cache.blockedCycles::no_targets            0                       # number of cycles access was blocked (Cycle)
system.cpu.itb_walker_cache.blockedCauses::no_mshrs            0                       # number of times access was blocked (Count)
system.cpu.itb_walker_cache.blockedCauses::no_targets            0                       # number of times access was blocked (Count)
system.cpu.itb_walker_cache.avgBlocked::no_mshrs          nan                       # average number of cycles each access was blocked ((Cycle/Count))
system.cpu.itb_walker_cache.avgBlocked::no_targets          nan                       # average number of cycles each access was blocked ((Cycle/Count))
system.cpu.itb_walker_cache.replacements            0                       # number of replacements (Count)
system.cpu.itb_walker_cache.power_state.pwrStateResidencyTicks::UNDEFINED  50042884500                       # Cumulative time (in ticks) in various power states (Tick)
system.cpu.itb_walker_cache.tags.tagsInUse            0                       # Average ticks per tags in use ((Tick/Count))
system.cpu.itb_walker_cache.tags.totalRefs            0                       # Total number of references to valid blocks. (Count)
system.cpu.itb_walker_cache.tags.sampledRefs            0                       # Sample count of references to valid blocks. (Count)
system.cpu.itb_walker_cache.tags.avgRefs          nan                       # Average number of references to valid blocks. ((Count/Count))
system.cpu.itb_walker_cache.tags.warmupTick            0                       # The tick when the warmup percentage was hit. (Tick)
system.cpu.itb_walker_cache.tags.tagAccesses            0                       # Number of tag accesses (Count)
system.cpu.itb_walker_cache.tags.dataAccesses            0                       # Number of data accesses (Count)
system.cpu.itb_walker_cache.tags.power_state.pwrStateResidencyTicks::UNDEFINED  50042884500                       # Cumulative time (in ticks) in various power states (Tick)
system.cpu.lsq0.forwLoads                     8858684                       # Number of loads that had data forwarded from stores (Count)
system.cpu.lsq0.squashedLoads                20714798                       # Number of loads squashed (Count)
system.cpu.lsq0.ignoredResponses                31144                       # Number of memory responses ignored because the instruction is squashed (Count)
system.cpu.lsq0.memOrderViolation              133795                       # Number of memory ordering violations (Count)
system.cpu.lsq0.squashedStores               14255452                       # Number of stores squashed (Count)
system.cpu.lsq0.rescheduledLoads                72271                       # Number of loads that were rescheduled (Count)
system.cpu.lsq0.blockedByCache                      5                       # Number of times an access to memory failed due to the cache being blocked (Count)
system.cpu.lsq0.loadToUse::samples           23730455                       # Distribution of cycle latency between the first time a load is issued and its completion (Unspecified)
system.cpu.lsq0.loadToUse::mean              2.983919                       # Distribution of cycle latency between the first time a load is issued and its completion (Unspecified)
system.cpu.lsq0.loadToUse::stdev             0.797130                       # Distribution of cycle latency between the first time a load is issued and its completion (Unspecified)
system.cpu.lsq0.loadToUse::0-9               23730342    100.00%    100.00% # Distribution of cycle latency between the first time a load is issued and its completion (Unspecified)
system.cpu.lsq0.loadToUse::10-19                   22      0.00%    100.00% # Distribution of cycle latency between the first time a load is issued and its completion (Unspecified)
system.cpu.lsq0.loadToUse::30-39                    1      0.00%    100.00% # Distribution of cycle latency between the first time a load is issued and its completion (Unspecified)
system.cpu.lsq0.loadToUse::40-49                    1      0.00%    100.00% # Distribution of cycle latency between the first time a load is issued and its completion (Unspecified)
system.cpu.lsq0.loadToUse::50-59                    1      0.00%    100.00% # Distribution of cycle latency between the first time a load is issued and its completion (Unspecified)
system.cpu.lsq0.loadToUse::90-99                    2      0.00%    100.00% # Distribution of cycle latency between the first time a load is issued and its completion (Unspecified)
system.cpu.lsq0.loadToUse::100-109                  1      0.00%    100.00% # Distribution of cycle latency between the first time a load is issued and its completion (Unspecified)
system.cpu.lsq0.loadToUse::120-129                  3      0.00%    100.00% # Distribution of cycle latency between the first time a load is issued and its completion (Unspecified)
system.cpu.lsq0.loadToUse::130-139                  2      0.00%    100.00% # Distribution of cycle latency between the first time a load is issued and its completion (Unspecified)
system.cpu.lsq0.loadToUse::140-149                 14      0.00%    100.00% # Distribution of cycle latency between the first time a load is issued and its completion (Unspecified)
[...]
system.mem_ctrls.dram.perBankWrBursts::11            0                       # Per bank write bursts (Count)
system.mem_ctrls.dram.perBankWrBursts::12            0                       # Per bank write bursts (Count)
system.mem_ctrls.dram.perBankWrBursts::13            0                       # Per bank write bursts (Count)
system.mem_ctrls.dram.perBankWrBursts::14            0                       # Per bank write bursts (Count)
system.mem_ctrls.dram.perBankWrBursts::15            0                       # Per bank write bursts (Count)
system.mem_ctrls.dram.totQLat                 7207500                       # Total ticks spent queuing (Tick)
system.mem_ctrls.dram.totBusLat               3335000                       # Total ticks spent in databus transfers (Tick)
system.mem_ctrls.dram.totMemAccLat           19713750                       # Total ticks spent from burst creation until serviced by the DRAM (Tick)
system.mem_ctrls.dram.avgQLat                10805.85                       # Average queueing delay per DRAM burst ((Tick/Count))
system.mem_ctrls.dram.avgBusLat               5000.00                       # Average bus latency per DRAM burst ((Tick/Count))
system.mem_ctrls.dram.avgMemAccLat           29555.85                       # Average memory access latency per DRAM burst ((Tick/Count))
system.mem_ctrls.dram.readRowHits                 510                       # Number of row buffer hits during reads (Count)
system.mem_ctrls.dram.writeRowHits                  0                       # Number of row buffer hits during writes (Count)
system.mem_ctrls.dram.readRowHitRate            76.46                       # Row buffer hit rate for reads (Ratio)
system.mem_ctrls.dram.writeRowHitRate             nan                       # Row buffer hit rate for writes (Ratio)
system.mem_ctrls.dram.bytesPerActivate::samples          154                       # Bytes accessed per row activation (Byte)
system.mem_ctrls.dram.bytesPerActivate::mean   274.285714                       # Bytes accessed per row activation (Byte)
system.mem_ctrls.dram.bytesPerActivate::gmean   171.940078                       # Bytes accessed per row activation (Byte)
system.mem_ctrls.dram.bytesPerActivate::stdev   289.445485                       # Bytes accessed per row activation (Byte)
system.mem_ctrls.dram.bytesPerActivate::0-127           53     34.42%     34.42% # Bytes accessed per row activation (Byte)
system.mem_ctrls.dram.bytesPerActivate::128-255           50     32.47%     66.88% # Bytes accessed per row activation (Byte)
system.mem_ctrls.dram.bytesPerActivate::256-383            9      5.84%     72.73% # Bytes accessed per row activation (Byte)
system.mem_ctrls.dram.bytesPerActivate::384-511           12      7.79%     80.52% # Bytes accessed per row activation (Byte)
system.mem_ctrls.dram.bytesPerActivate::512-639           10      6.49%     87.01% # Bytes accessed per row activation (Byte)
system.mem_ctrls.dram.bytesPerActivate::640-767            2      1.30%     88.31% # Bytes accessed per row activation (Byte)
system.mem_ctrls.dram.bytesPerActivate::768-895            5      3.25%     91.56% # Bytes accessed per row activation (Byte)
system.mem_ctrls.dram.bytesPerActivate::896-1023            1      0.65%     92.21% # Bytes accessed per row activation (Byte)
system.mem_ctrls.dram.bytesPerActivate::1024-1151           12      7.79%    100.00% # Bytes accessed per row activation (Byte)
system.mem_ctrls.dram.bytesPerActivate::total          154                       # Bytes accessed per row activation (Byte)
system.mem_ctrls.dram.bytesRead                 42688                       # Total number of bytes read from DRAM (Byte)
system.mem_ctrls.dram.bytesWritten                  0                       # Total number of bytes written to DRAM (Byte)
system.mem_ctrls.dram.avgRdBW                0.853028                       # Average DRAM read bandwidth in MiBytes/s ((Byte/Second))
system.mem_ctrls.dram.avgWrBW                       0                       # Average DRAM write bandwidth in MiBytes/s ((Byte/Second))
system.mem_ctrls.dram.peakBW                 12800.00                       # Theoretical peak bandwidth in MiByte/s ((Byte/Second))
system.mem_ctrls.dram.busUtil                    0.01                       # Data bus utilization in percentage (Ratio)
system.mem_ctrls.dram.busUtilRead                0.01                       # Data bus utilization in percentage for reads (Ratio)
system.mem_ctrls.dram.busUtilWrite               0.00                       # Data bus utilization in percentage for writes (Ratio)
system.mem_ctrls.dram.pageHitRate               76.46                       # Row buffer hit rate, read and write combined (Ratio)
system.mem_ctrls.dram.power_state.pwrStateResidencyTicks::UNDEFINED  50042884500                       # Cumulative time (in ticks) in various power states (Tick)
system.mem_ctrls.dram.rank0.actEnergy          714000                       # Energy for activate commands per rank (pJ) (Joule)
system.mem_ctrls.dram.rank0.preEnergy          368115                       # Energy for precharge commands per rank (pJ) (Joule)
system.mem_ctrls.dram.rank0.readEnergy        3441480                       # Energy for read commands per rank (pJ) (Joule)
system.mem_ctrls.dram.rank0.writeEnergy             0                       # Energy for write commands per rank (pJ) (Joule)
system.mem_ctrls.dram.rank0.refreshEnergy 3950291280.000000                       # Energy for refresh commands per rank (pJ) (Joule)
system.mem_ctrls.dram.rank0.actBackEnergy    751776990                       # Energy for active background per rank (pJ) (Joule)
system.mem_ctrls.dram.rank0.preBackEnergy  18583392480                       # Energy for precharge background per rank (pJ) (Joule)
system.mem_ctrls.dram.rank0.actPowerDownEnergy            0                       # Energy for active power-down per rank (pJ) (Joule)
system.mem_ctrls.dram.rank0.prePowerDownEnergy            0                       # Energy for precharge power-down per rank (pJ) (Joule)
system.mem_ctrls.dram.rank0.selfRefreshEnergy            0                       # Energy for self refresh per rank (pJ) (Joule)
system.mem_ctrls.dram.rank0.totalEnergy   23289984345                       # Total energy per rank (pJ) (Joule)
system.mem_ctrls.dram.rank0.averagePower   465.400518                       # Core power per rank (mW) (Watt)
system.mem_ctrls.dram.rank0.totalIdleTime            0                       # Total Idle time Per DRAM Rank (Tick)
system.mem_ctrls.dram.rank0.pwrStateTime::IDLE  48305710500                       # Time in different power states (Tick)
system.mem_ctrls.dram.rank0.pwrStateTime::REF   1671020000                       # Time in different power states (Tick)
system.mem_ctrls.dram.rank0.pwrStateTime::SREF            0                       # Time in different power states (Tick)
system.mem_ctrls.dram.rank0.pwrStateTime::PRE_PDN            0                       # Time in different power states (Tick)
system.mem_ctrls.dram.rank0.pwrStateTime::ACT     66154000                       # Time in different power states (Tick)
system.mem_ctrls.dram.rank0.pwrStateTime::ACT_PDN            0                       # Time in different power states (Tick)
system.mem_ctrls.dram.rank1.actEnergy          406980                       # Energy for activate commands per rank (pJ) (Joule)
system.mem_ctrls.dram.rank1.preEnergy          216315                       # Energy for precharge commands per rank (pJ) (Joule)
system.mem_ctrls.dram.rank1.readEnergy        1320900                       # Energy for read commands per rank (pJ) (Joule)
system.mem_ctrls.dram.rank1.writeEnergy             0                       # Energy for write commands per rank (pJ) (Joule)
system.mem_ctrls.dram.rank1.refreshEnergy 3950291280.000000                       # Energy for refresh commands per rank (pJ) (Joule)
system.mem_ctrls.dram.rank1.actBackEnergy    745754370                       # Energy for active background per rank (pJ) (Joule)
system.mem_ctrls.dram.rank1.preBackEnergy  18588464160                       # Energy for precharge background per rank (pJ) (Joule)
system.mem_ctrls.dram.rank1.actPowerDownEnergy            0                       # Energy for active power-down per rank (pJ) (Joule)
system.mem_ctrls.dram.rank1.prePowerDownEnergy            0                       # Energy for precharge power-down per rank (pJ) (Joule)
system.mem_ctrls.dram.rank1.selfRefreshEnergy            0                       # Energy for self refresh per rank (pJ) (Joule)
system.mem_ctrls.dram.rank1.totalEnergy   23286454005                       # Total energy per rank (pJ) (Joule)
system.mem_ctrls.dram.rank1.averagePower   465.329971                       # Core power per rank (mW) (Watt)
system.mem_ctrls.dram.rank1.totalIdleTime            0                       # Total Idle time Per DRAM Rank (Tick)
system.mem_ctrls.dram.rank1.pwrStateTime::IDLE  48318946000                       # Time in different power states (Tick)
system.mem_ctrls.dram.rank1.pwrStateTime::REF   1671020000                       # Time in different power states (Tick)
system.mem_ctrls.dram.rank1.pwrStateTime::SREF            0                       # Time in different power states (Tick)
system.mem_ctrls.dram.rank1.pwrStateTime::PRE_PDN            0                       # Time in different power states (Tick)
system.mem_ctrls.dram.rank1.pwrStateTime::ACT     52918500                       # Time in different power states (Tick)
system.mem_ctrls.dram.rank1.pwrStateTime::ACT_PDN            0                       # Time in different power states (Tick)
system.mem_ctrls.power_state.pwrStateResidencyTicks::UNDEFINED  50042884500                       # Cumulative time (in ticks) in various power states (Tick)
system.membus.transDist::ReadResp                 611                       # Transaction distribution (Count)
system.membus.transDist::ReadExReq                 55                       # Transaction distribution (Count)
system.membus.transDist::ReadExResp                55                       # Transaction distribution (Count)
system.membus.transDist::ReadSharedReq            612                       # Transaction distribution (Count)
system.membus.pktCount_system.l2.mem_side_port::system.mem_ctrls.port         1333                       # Packet count per connected requestor and responder (Count)
system.membus.pktCount_system.l2.mem_side_port::total         1333                       # Packet count per connected requestor and responder (Count)
system.membus.pktCount::total                    1333                       # Packet count per connected requestor and responder (Count)
system.membus.pktSize_system.l2.mem_side_port::system.mem_ctrls.port        42624                       # Cumulative packet size per connected requestor and responder (Byte)
system.membus.pktSize_system.l2.mem_side_port::total        42624                       # Cumulative packet size per connected requestor and responder (Byte)
system.membus.pktSize::total                    42624                       # Cumulative packet size per connected requestor and responder (Byte)
system.membus.snoops                                0                       # Total snoops (Count)
system.membus.snoopTraffic                          0                       # Total snoop traffic (Byte)
system.membus.snoopFanout::samples                667                       # Request fanout histogram (Count)
system.membus.snoopFanout::mean                     0                       # Request fanout histogram (Count)
system.membus.snoopFanout::stdev                    0                       # Request fanout histogram (Count)
system.membus.snoopFanout::underflows               0      0.00%      0.00% # Request fanout histogram (Count)
system.membus.snoopFanout::0                      667    100.00%    100.00% # Request fanout histogram (Count)
system.membus.snoopFanout::1                        0      0.00%    100.00% # Request fanout histogram (Count)
system.membus.snoopFanout::overflows                0      0.00%    100.00% # Request fanout histogram (Count)
system.membus.snoopFanout::min_value                0                       # Request fanout histogram (Count)
system.membus.snoopFanout::max_value                0                       # Request fanout histogram (Count)
system.membus.snoopFanout::total                  667                       # Request fanout histogram (Count)
system.membus.power_state.pwrStateResidencyTicks::UNDEFINED  50042884500                       # Cumulative time (in ticks) in various power states (Tick)
system.membus.reqLayer2.occupancy              810500                       # Layer occupancy (ticks) (Tick)
system.membus.reqLayer2.utilization               0.0                       # Layer utilization (Ratio)
system.membus.respLayer1.occupancy            3544250                       # Layer occupancy (ticks) (Tick)
system.membus.respLayer1.utilization              0.0                       # Layer utilization (Ratio)
system.membus.snoop_filter.totRequests            667                       # Total number of requests made to the snoop filter. (Count)
system.membus.snoop_filter.hitSingleRequests            0                       # Number of requests hitting in the snoop filter with a single holder of the requested data. (Count)
system.membus.snoop_filter.hitMultiRequests            0                       # Number of requests hitting in the snoop filter with multiple (>1) holders of the requested data. (Count)
system.membus.snoop_filter.totSnoops                0                       # Total number of snoops made to the snoop filter. (Count)
system.membus.snoop_filter.hitSingleSnoops            0                       # Number of snoops hitting in the snoop filter with a single holder of the requested data. (Count)
system.membus.snoop_filter.hitMultiSnoops            0                       # Number of snoops hitting in the snoop filter with multiple (>1) holders of the requested data. (Count)
system.tol2bus.transDist::ReadResp                624                       # Transaction distribution (Count)
system.tol2bus.transDist::WritebackClean          101                       # Transaction distribution (Count)
system.tol2bus.transDist::CleanEvict                1                       # Transaction distribution (Count)
system.tol2bus.transDist::UpgradeReq                5                       # Transaction distribution (Count)
system.tol2bus.transDist::UpgradeResp               5                       # Transaction distribution (Count)
system.tol2bus.transDist::ReadExReq                55                       # Transaction distribution (Count)
system.tol2bus.transDist::ReadExResp               55                       # Transaction distribution (Count)
system.tol2bus.transDist::ReadCleanReq            537                       # Transaction distribution (Count)
system.tol2bus.transDist::ReadSharedReq            88                       # Transaction distribution (Count)
system.tol2bus.pktCount_system.cpu.icache.mem_side_port::system.l2.cpu_side_port         1170                       # Packet count per connected requestor and responder (Count)
system.tol2bus.pktCount_system.cpu.dcache.mem_side_port::system.l2.cpu_side_port          297                       # Packet count per connected requestor and responder (Count)
system.tol2bus.pktCount::total                   1467                       # Packet count per connected requestor and responder (Count)
system.tol2bus.pktSize_system.cpu.icache.mem_side_port::system.l2.cpu_side_port        40512                       # Cumulative packet size per connected requestor and responder (Byte)
system.tol2bus.pktSize_system.cpu.dcache.mem_side_port::system.l2.cpu_side_port         9152                       # Cumulative packet size per connected requestor and responder (Byte)
system.tol2bus.pktSize::total                   49664                       # Cumulative packet size per connected requestor and responder (Byte)
system.tol2bus.snoops                               4                       # Total snoops (Count)
system.tol2bus.snoopTraffic                       256                       # Total snoop traffic (Byte)
system.tol2bus.snoopFanout::samples               685                       # Request fanout histogram (Count)
system.tol2bus.snoopFanout::mean             0.017518                       # Request fanout histogram (Count)
system.tol2bus.snoopFanout::stdev            0.131288                       # Request fanout histogram (Count)
system.tol2bus.snoopFanout::underflows              0      0.00%      0.00% # Request fanout histogram (Count)
system.tol2bus.snoopFanout::0                     673     98.25%     98.25% # Request fanout histogram (Count)
system.tol2bus.snoopFanout::1                      12      1.75%    100.00% # Request fanout histogram (Count)
system.tol2bus.snoopFanout::2                       0      0.00%    100.00% # Request fanout histogram (Count)
system.tol2bus.snoopFanout::3                       0      0.00%    100.00% # Request fanout histogram (Count)
system.tol2bus.snoopFanout::4                       0      0.00%    100.00% # Request fanout histogram (Count)
system.tol2bus.snoopFanout::overflows               0      0.00%    100.00% # Request fanout histogram (Count)
system.tol2bus.snoopFanout::min_value               0                       # Request fanout histogram (Count)
system.tol2bus.snoopFanout::max_value               1                       # Request fanout histogram (Count)
system.tol2bus.snoopFanout::total                 685                       # Request fanout histogram (Count)
system.tol2bus.power_state.pwrStateResidencyTicks::UNDEFINED  50042884500                       # Cumulative time (in ticks) in various power states (Tick)
system.tol2bus.reqLayer0.occupancy             494500                       # Layer occupancy (ticks) (Tick)
system.tol2bus.reqLayer0.utilization              0.0                       # Layer utilization (Ratio)
system.tol2bus.respLayer0.occupancy            804000                       # Layer occupancy (ticks) (Tick)
system.tol2bus.respLayer0.utilization             0.0                       # Layer utilization (Ratio)
system.tol2bus.respLayer1.occupancy            217499                       # Layer occupancy (ticks) (Tick)
system.tol2bus.respLayer1.utilization             0.0                       # Layer utilization (Ratio)
system.tol2bus.snoop_filter.totRequests           787                       # Total number of requests made to the snoop filter. (Count)
system.tol2bus.snoop_filter.hitSingleRequests          109                       # Number of requests hitting in the snoop filter with a single holder of the requested data. (Count)
system.tol2bus.snoop_filter.hitMultiRequests            5                       # Number of requests hitting in the snoop filter with multiple (>1) holders of the requested data. (Count)
system.tol2bus.snoop_filter.totSnoops               0                       # Total number of snoops made to the snoop filter. (Count)
system.tol2bus.snoop_filter.hitSingleSnoops            0                       # Number of snoops hitting in the snoop filter with a single holder of the requested data. (Count)
system.tol2bus.snoop_filter.hitMultiSnoops            0                       # Number of snoops hitting in the snoop filter with multiple (>1) holders of the requested data. (Count)
system.voltage_domain.voltage                       1                       # Voltage in Volts (Volt)
system.workload.inst.arm                            0                       # number of arm instructions executed (Count)
system.workload.inst.quiesce                        0                       # number of quiesce instructions executed (Count)

---------- End Simulation Statistics   ----------
