
---------- Begin Simulation Statistics ----------
simSeconds                                   0.003118                       # Number of seconds simulated (Second)
simTicks                                   3117827500                       # Number of ticks simulated (Tick)
finalTick                                  3117827500                       # Number of ticks from beginning of simulation (restored from checkpoints and never reset) (Tick)
simFreq                                  1000000000000                       # The number of ticks per simulated second ((Tick/Second))
hostSeconds                                     34.39                       # Real time elapsed on the host (Second)
hostTickRate                                 90669800                       # The number of ticks simulated per host second (ticks/s) ((Tick/Second))
hostMemory                                    2241520                       # Number of bytes of host memory used (Byte)
simInsts                                      5989129                       # Number of instructions simulated (Count)
simOps                                       11493089                       # Number of ops (including micro ops) simulated (Count)
hostInstRate                                   174170                       # Simulator instruction rate (inst/s) ((Count/Second))
hostOpRate                                     334231                       # Simulator op (including micro ops) rate (op/s) ((Count/Second))
system.clk_domain.clock                          1000                       # Clock period in ticks (Tick)
system.cpu.numCycles                          6235656                       # Number of cpu cycles simulated (Cycle)
system.cpu.numWorkItemsStarted                      0                       # Number of work items this cpu started (Count)
system.cpu.numWorkItemsCompleted                    0                       # Number of work items this cpu completed (Count)
system.cpu.instsAdded                        19513323                       # Number of instructions added to the IQ (excludes non-spec) (Count)
system.cpu.nonSpecInstsAdded                   114483                       # Number of non-speculative instructions added to the IQ (Count)
system.cpu.instsIssued                       16705579                       # Number of instructions issued (Count)
system.cpu.squashedInstsIssued                  93016                       # Number of squashed instructions issued (Count)
system.cpu.squashedInstsExamined              8134695                       # Number of squashed instructions iterated over during squash; mainly for profiling (Count)
system.cpu.squashedOperandsExamined          11650755                       # Number of squashed operands that are examined and possibly removed from graph (Count)
system.cpu.squashedNonSpecRemoved              106702                       # Number of squashed non-spec instructions that were removed (Count)
system.cpu.numIssuedDist::samples             6088162                       # Number of insts issued each cycle (Count)
system.cpu.numIssuedDist::mean               2.743945                       # Number of insts issued each cycle (Count)
system.cpu.numIssuedDist::stdev              2.620293                       # Number of insts issued each cycle (Count)
system.cpu.numIssuedDist::underflows                0      0.00%      0.00% # Number of insts issued each cycle (Count)
system.cpu.numIssuedDist::0                   2217655     36.43%     36.43% # Number of insts issued each cycle (Count)
system.cpu.numIssuedDist::1                    389250      6.39%     42.82% # Number of insts issued each cycle (Count)
system.cpu.numIssuedDist::2                    448728      7.37%     50.19% # Number of insts issued each cycle (Count)
system.cpu.numIssuedDist::3                    599878      9.85%     60.04% # Number of insts issued each cycle (Count)
system.cpu.numIssuedDist::4                    621637     10.21%     70.25% # Number of insts issued each cycle (Count)
system.cpu.numIssuedDist::5                    520782      8.55%     78.81% # Number of insts issued each cycle (Count)
system.cpu.numIssuedDist::6                    706282     11.60%     90.41% # Number of insts issued each cycle (Count)
system.cpu.numIssuedDist::7                    380511      6.25%     96.66% # Number of insts issued each cycle (Count)
system.cpu.numIssuedDist::8                    203439      3.34%    100.00% # Number of insts issued each cycle (Count)
system.cpu.numIssuedDist::overflows                 0      0.00%    100.00% # Number of insts issued each cycle (Count)
system.cpu.numIssuedDist::min_value                 0                       # Number of insts issued each cycle (Count)
system.cpu.numIssuedDist::max_value                 8                       # Number of insts issued each cycle (Count)
system.cpu.numIssuedDist::total               6088162                       # Number of insts issued each cycle (Count)
system.cpu.statFuBusy::No_OpClass                   0      0.00%      0.00% # attempts to use FU when none available (Count)
system.cpu.statFuBusy::IntAlu                  298686     88.99%     88.99% # attempts to use FU when none available (Count)
system.cpu.statFuBusy::IntMult                      0      0.00%     88.99% # attempts to use FU when none available (Count)
system.cpu.statFuBusy::IntDiv                       0      0.00%     88.99% # attempts to use FU when none available (Count)
system.cpu.statFuBusy::FloatAdd                     0      0.00%     88.99% # attempts to use FU when none available (Count)
system.cpu.statFuBusy::FloatCmp                     0      0.00%     88.99% # attempts to use FU when none available (Count)
system.cpu.statFuBusy::FloatCvt                     0      0.00%     88.99% # attempts to use FU when none available (Count)
system.cpu.statFuBusy::FloatMult                    0      0.00%     88.99% # attempts to use FU when none available (Count)
system.cpu.statFuBusy::FloatMultAcc                 0      0.00%     88.99% # attempts to use FU when none available (Count)
system.cpu.statFuBusy::FloatDiv                     0      0.00%     88.99% # attempts to use FU when none available (Count)
system.cpu.statFuBusy::FloatMisc                    0      0.00%     88.99% # attempts to use FU when none available (Count)
system.cpu.statFuBusy::FloatSqrt                    0      0.00%     88.99% # attempts to use FU when none available (Count)
system.cpu.statFuBusy::SimdAdd                      0      0.00%     88.99% # attempts to use FU when none available (Count)
system.cpu.statFuBusy::SimdAddAcc                   0      0.00%     88.99% # attempts to use FU when none available (Count)
system.cpu.statFuBusy::SimdAlu                      0      0.00%     88.99% # attempts to use FU when none available (Count)
system.cpu.statFuBusy::SimdCmp                      0      0.00%     88.99% # attempts to use FU when none available (Count)
system.cpu.statFuBusy::SimdCvt                      0      0.00%     88.99% # attempts to use FU when none available (Count)
system.cpu.statFuBusy::SimdMisc                     0      0.00%     88.99% # attempts to use FU when none available (Count)
system.cpu.statFuBusy::SimdMult                     0      0.00%     88.99% # attempts to use FU when none available (Count)
system.cpu.statFuBusy::SimdMultAcc                  0      0.00%     88.99% # attempts to use FU when none available (Count)
system.cpu.statFuBusy::SimdShift                    0      0.00%     88.99% # attempts to use FU when none available (Count)
system.cpu.statFuBusy::SimdShiftAcc                 0      0.00%     88.99% # attempts to use FU when none available (Count)
system.cpu.statFuBusy::SimdDiv                      0      0.00%     88.99% # attempts to use FU when none available (Count)
system.cpu.statFuBusy::SimdSqrt                     0      0.00%     88.99% # attempts to use FU when none available (Count)
system.cpu.statFuBusy::SimdFloatAdd                 0      0.00%     88.99% # attempts to use FU when none available (Count)
system.cpu.statFuBusy::SimdFloatAlu                 0      0.00%     88.99% # attempts to use FU when none available (Count)
system.cpu.statFuBusy::SimdFloatCmp                 0      0.00%     88.99% # attempts to use FU when none available (Count)
system.cpu.statFuBusy::SimdFloatCvt                 0      0.00%     88.99% # attempts to use FU when none available (Count)
system.cpu.statFuBusy::SimdFloatDiv                 0      0.00%     88.99% # attempts to use FU when none available (Count)
system.cpu.statFuBusy::SimdFloatMisc                0      0.00%     88.99% # attempts to use FU when none available (Count)
system.cpu.statFuBusy::SimdFloatMult                0      0.00%     88.99% # attempts to use FU when none available (Count)
system.cpu.statFuBusy::SimdFloatMultAcc             0      0.00%     88.99% # attempts to use FU when none available (Count)
system.cpu.statFuBusy::SimdFloatSqrt                0      0.00%     88.99% # attempts to use FU when none available (Count)
system.cpu.statFuBusy::SimdReduceAdd                0      0.00%     88.99% # attempts to use FU when none available (Count)
system.cpu.statFuBusy::SimdReduceAlu                0      0.00%     88.99% # attempts to use FU when none available (Count)
system.cpu.statFuBusy::SimdReduceCmp                0      0.00%     88.99% # attempts to use FU when none available (Count)
system.cpu.statFuBusy::SimdFloatReduceAdd            0      0.00%     88.99% # attempts to use FU when none available (Count)
system.cpu.statFuBusy::SimdFloatReduceCmp            0      0.00%     88.99% # attempts to use FU when none available (Count)
system.cpu.statFuBusy::SimdAes                      0      0.00%     88.99% # attempts to use FU when none available (Count)
system.cpu.statFuBusy::SimdAesMix                   0      0.00%     88.99% # attempts to use FU when none available (Count)
system.cpu.statFuBusy::SimdSha1Hash                 0      0.00%     88.99% # attempts to use FU when none available (Count)
system.cpu.statFuBusy::SimdSha1Hash2                0      0.00%     88.99% # attempts to use FU when none available (Count)
system.cpu.statFuBusy::SimdSha256Hash               0      0.00%     88.99% # attempts to use FU when none available (Count)
system.cpu.statFuBusy::SimdSha256Hash2              0      0.00%     88.99% # attempts to use FU when none available (Count)
system.cpu.statFuBusy::SimdShaSigma2                0      0.00%     88.99% # attempts to use FU when none available (Count)
system.cpu.statFuBusy::SimdShaSigma3                0      0.00%     88.99% # attempts to use FU when none available (Count)
system.cpu.statFuBusy::SimdPredAlu                  0      0.00%     88.99% # attempts to use FU when none available (Count)
system.cpu.statFuBusy::MemRead                  25434      7.58%     96.57% # attempts to use FU when none available (Count)
system.cpu.statFuBusy::MemWrite                 11449      3.41%     99.98% # attempts to use FU when none available (Count)
system.cpu.statFuBusy::FloatMemRead                76      0.02%    100.00% # attempts to use FU when none available (Count)
system.cpu.statFuBusy::FloatMemWrite                0      0.00%    100.00% # attempts to use FU when none available (Count)
system.cpu.statFuBusy::IprAccess                    0      0.00%    100.00% # attempts to use FU when none available (Count)
system.cpu.statFuBusy::InstPrefetch                 0      0.00%    100.00% # attempts to use FU when none available (Count)
system.cpu.statIssuedInstType_0::No_OpClass        11753      0.07%      0.07% # Number of instructions issued per FU type, per thread (Count)
system.cpu.statIssuedInstType_0::IntAlu      13027754     77.98%     78.05% # Number of instructions issued per FU type, per thread (Count)
system.cpu.statIssuedInstType_0::IntMult          235      0.00%     78.06% # Number of instructions issued per FU type, per thread (Count)
system.cpu.statIssuedInstType_0::IntDiv          1209      0.01%     78.06% # Number of instructions issued per FU type, per thread (Count)
system.cpu.statIssuedInstType_0::FloatAdd           68      0.00%     78.06% # Number of instructions issued per FU type, per thread (Count)
system.cpu.statIssuedInstType_0::FloatCmp          100      0.00%     78.06% # Number of instructions issued per FU type, per thread (Count)
system.cpu.statIssuedInstType_0::FloatCvt            0      0.00%     78.06% # Number of instructions issued per FU type, per thread (Count)
system.cpu.statIssuedInstType_0::FloatMult            0      0.00%     78.06% # Number of instructions issued per FU type, per thread (Count)
system.cpu.statIssuedInstType_0::FloatMultAcc            0      0.00%     78.06% # Number of instructions issued per FU type, per thread (Count)
system.cpu.statIssuedInstType_0::FloatDiv            0      0.00%     78.06% # Number of instructions issued per FU type, per thread (Count)
system.cpu.statIssuedInstType_0::FloatMisc            0      0.00%     78.06% # Number of instructions issued per FU type, per thread (Count)
system.cpu.statIssuedInstType_0::FloatSqrt            0      0.00%     78.06% # Number of instructions issued per FU type, per thread (Count)
system.cpu.statIssuedInstType_0::SimdAdd            0      0.00%     78.06% # Number of instructions issued per FU type, per thread (Count)
system.cpu.statIssuedInstType_0::SimdAddAcc            0      0.00%     78.06% # Number of instructions issued per FU type, per thread (Count)
system.cpu.statIssuedInstType_0::SimdAlu            0      0.00%     78.06% # Number of instructions issued per FU type, per thread (Count)
system.cpu.statIssuedInstType_0::SimdCmp            0      0.00%     78.06% # Number of instructions issued per FU type, per thread (Count)
system.cpu.statIssuedInstType_0::SimdCvt            0      0.00%     78.06% # Number of instructions issued per FU type, per thread (Count)
system.cpu.statIssuedInstType_0::SimdMisc            0      0.00%     78.06% # Number of instructions issued per FU type, per thread (Count)
system.cpu.statIssuedInstType_0::SimdMult            0      0.00%     78.06% # Number of instructions issued per FU type, per thread (Count)
system.cpu.statIssuedInstType_0::SimdMultAcc            0      0.00%     78.06% # Number of instructions issued per FU type, per thread (Count)
system.cpu.statIssuedInstType_0::SimdShift            0      0.00%     78.06% # Number of instructions issued per FU type, per thread (Count)
system.cpu.statIssuedInstType_0::SimdShiftAcc            0      0.00%     78.06% # Number of instructions issued per FU type, per thread (Count)
system.cpu.statIssuedInstType_0::SimdDiv            0      0.00%     78.06% # Number of instructions issued per FU type, per thread (Count)
system.cpu.statIssuedInstType_0::SimdSqrt            0      0.00%     78.06% # Number of instructions issued per FU type, per thread (Count)
system.cpu.statIssuedInstType_0::SimdFloatAdd            0      0.00%     78.06% # Number of instructions issued per FU type, per thread (Count)
system.cpu.statIssuedInstType_0::SimdFloatAlu            0      0.00%     78.06% # Number of instructions issued per FU type, per thread (Count)
system.cpu.statIssuedInstType_0::SimdFloatCmp            0      0.00%     78.06% # Number of instructions issued per FU type, per thread (Count)
system.cpu.statIssuedInstType_0::SimdFloatCvt            0      0.00%     78.06% # Number of instructions issued per FU type, per thread (Count)
system.cpu.statIssuedInstType_0::SimdFloatDiv            0      0.00%     78.06% # Number of instructions issued per FU type, per thread (Count)
system.cpu.statIssuedInstType_0::SimdFloatMisc            0      0.00%     78.06% # Number of instructions issued per FU type, per thread (Count)
system.cpu.statIssuedInstType_0::SimdFloatMult            0      0.00%     78.06% # Number of instructions issued per FU type, per thread (Count)
system.cpu.statIssuedInstType_0::SimdFloatMultAcc            0      0.00%     78.06% # Number of instructions issued per FU type, per thread (Count)
system.cpu.statIssuedInstType_0::SimdFloatSqrt            0      0.00%     78.06% # Number of instructions issued per FU type, per thread (Count)
system.cpu.statIssuedInstType_0::SimdReduceAdd            0      0.00%     78.06% # Number of instructions issued per FU type, per thread (Count)
system.cpu.statIssuedInstType_0::SimdReduceAlu            0      0.00%     78.06% # Number of instructions issued per FU type, per thread (Count)
system.cpu.statIssuedInstType_0::SimdReduceCmp            0      0.00%     78.06% # Number of instructions issued per FU type, per thread (Count)
system.cpu.statIssuedInstType_0::SimdFloatReduceAdd            0      0.00%     78.06% # Number of instructions issued per FU type, per thread (Count)
system.cpu.statIssuedInstType_0::SimdFloatReduceCmp            0      0.00%     78.06% # Number of instructions issued per FU type, per thread (Count)
system.cpu.statIssuedInstType_0::SimdAes            0      0.00%     78.06% # Number of instructions issued per FU type, per thread (Count)
system.cpu.statIssuedInstType_0::SimdAesMix            0      0.00%     78.06% # Number of instructions issued per FU type, per thread (Count)
system.cpu.statIssuedInstType_0::SimdSha1Hash            0      0.00%     78.06% # Number of instructions issued per FU type, per thread (Count)
system.cpu.statIssuedInstType_0::SimdSha1Hash2            0      0.00%     78.06% # Number of instructions issued per FU type, per thread (Count)
system.cpu.statIssuedInstType_0::SimdSha256Hash            0      0.00%     78.06% # Number of instructions issued per FU type, per thread (Count)
system.cpu.statIssuedInstType_0::SimdSha256Hash2            0      0.00%     78.06% # Number of instructions issued per FU type, per thread (Count)
system.cpu.statIssuedInstType_0::SimdShaSigma2            0      0.00%     78.06% # Number of instructions issued per FU type, per thread (Count)
system.cpu.statIssuedInstType_0::SimdShaSigma3            0      0.00%     78.06% # Number of instructions issued per FU type, per thread (Count)
system.cpu.statIssuedInstType_0::SimdPredAlu            0      0.00%     78.06% # Number of instructions issued per FU type, per thread (Count)
system.cpu.statIssuedInstType_0::MemRead      2343127     14.03%     92.09% # Number of instructions issued per FU type, per thread (Count)
system.cpu.statIssuedInstType_0::MemWrite      1320368      7.90%     99.99% # Number of instructions issued per FU type, per thread (Count)
system.cpu.statIssuedInstType_0::FloatMemRead          686      0.00%    100.00% # Number of instructions issued per FU type, per thread (Count)
system.cpu.statIssuedInstType_0::FloatMemWrite          279      0.00%    100.00% # Number of instructions issued per FU type, per thread (Count)
system.cpu.statIssuedInstType_0::IprAccess            0      0.00%    100.00% # Number of instructions issued per FU type, per thread (Count)
system.cpu.statIssuedInstType_0::InstPrefetch            0      0.00%    100.00% # Number of instructions issued per FU type, per thread (Count)
system.cpu.statIssuedInstType_0::total       16705579                       # Number of instructions issued per FU type, per thread (Count)
system.cpu.issueRate                         2.679041                       # Inst issue rate ((Count/Cycle))
system.cpu.fuBusy                              335645                       # FU busy when requested (Count)
system.cpu.fuBusyRate                        0.020092                       # FU busy rate (busy events/executed inst) ((Count/Count))
system.cpu.intInstQueueReads                 39924075                       # Number of integer instruction queue reads (Count)
system.cpu.intInstQueueWrites                27765630                       # Number of integer instruction queue writes (Count)
system.cpu.intInstQueueWakeupAccesses        16112221                       # Number of integer instruction queue wakeup accesses (Count)
system.cpu.fpInstQueueReads                      3906                       # Number of floating instruction queue reads (Count)
system.cpu.fpInstQueueWrites                     2879                       # Number of floating instruction queue writes (Count)
system.cpu.fpInstQueueWakeupAccesses             1838                       # Number of floating instruction queue wakeup accesses (Count)
system.cpu.vecInstQueueReads                        0                       # Number of vector instruction queue reads (Count)
system.cpu.vecInstQueueWrites                       0                       # Number of vector instruction queue writes (Count)
system.cpu.vecInstQueueWakeupAccesses               0                       # Number of vector instruction queue wakeup accesses (Count)
system.cpu.intAluAccesses                    17027480                       # Number of integer alu accesses (Count)
system.cpu.fpAluAccesses                         1991                       # Number of floating point alu accesses (Count)
system.cpu.vecAluAccesses                           0                       # Number of vector alu accesses (Count)
system.cpu.idleCycles                               0                       # Number of cycles IEW is idle (Cycle)
system.cpu.squashCycles                        175775                       # Number of cycles IEW is squashing (Cycle)
system.cpu.blockCycles                        1013036                       # Number of cycles IEW is blocking (Cycle)
system.cpu.unblockCycles                        12459                       # Number of cycles IEW is unblocking (Cycle)
system.cpu.dispatchedInsts                   19627806                       # Number of instructions dispatched to IQ (Count)
system.cpu.dispSquashedInsts                     3262                       # Number of squashed instructions skipped by dispatch (Count)
system.cpu.dispLoadInsts                      2836732                       # Number of dispatched load instructions (Count)
system.cpu.dispStoreInsts                     1691525                       # Number of dispatched store instructions (Count)
system.cpu.dispNonSpecInsts                     39864                       # Number of dispatched non-speculative instructions (Count)
system.cpu.iqFullEvents                          5217                       # Number of times the IQ has become full, causing a stall (Count)
system.cpu.lsqFullEvents                         5312                       # Number of times the LSQ has become full, causing a stall (Count)
system.cpu.memOrderViolationEvents               6437                       # Number of memory order violations (Count)
system.cpu.predictedTakenIncorrect              36235                       # Number of branches that were predicted taken incorrectly (Count)
system.cpu.predictedNotTakenIncorrect          171607                       # Number of branches that were predicted not taken incorrectly (Count)
system.cpu.branchMispredicts                   207842                       # Number of branch mispredicts detected at execute (Count)
system.cpu.numInsts                          16295275                       # Number of executed instructions (Count)
system.cpu.numLoadInsts                       2271526                       # Number of load instructions executed (Count)
system.cpu.numSquashedInsts                    410304                       # Number of squashed instructions skipped in execute (Count)
system.cpu.numSwp                                   0                       # Number of swp insts executed (Count)
system.cpu.numNop                                   0                       # Number of nop insts executed (Count)
system.cpu.numRefs                            3528910                       # Number of memory reference insts executed (Count)
system.cpu.numBranches                        1688981                       # Number of branches executed (Count)
system.cpu.numStoreInsts                      1257384                       # Number of stores executed (Count)
system.cpu.numRate                           2.613241                       # Inst execution rate ((Count/Cycle))
system.cpu.instsToCommit                     16193983                       # Cumulative count of insts sent to commit (Count)
system.cpu.writebackCount                    16114059                       # Cumulative count of insts written-back (Count)
system.cpu.producerInst                      12398791                       # Number of instructions producing a value (Count)
system.cpu.consumerInst                      20561485                       # Number of instructions consuming a value (Count)
system.cpu.wbRate                            2.584180                       # Insts written-back per cycle ((Count/Cycle))
system.cpu.wbFanout                          0.603010                       # Average fanout of values written-back ((Count/Count))
system.cpu.timesIdled                            3262                       # Number of times that the entire CPU went into an idle state and unscheduled itself (Count)
system.cpu.idleCycles                          147494                       # Total number of cycles that the CPU has spent unscheduled due to idling (Cycle)
system.cpu.committedInsts                     5989129                       # Number of Instructions Simulated (Count)
system.cpu.committedOps                      11493089                       # Number of Ops (including micro ops) Simulated (Count)
system.cpu.cpi                               1.041162                       # CPI: Cycles Per Instruction ((Cycle/Count))
system.cpu.totalCpi                          1.041162                       # CPI: Total CPI of All Threads ((Cycle/Count))
system.cpu.ipc                               0.960465                       # IPC: Instructions Per Cycle ((Count/Cycle))
system.cpu.totalIpc                          0.960465                       # IPC: Total IPC of All Threads ((Count/Cycle))
system.cpu.intRegfileReads                   22615264                       # Number of integer regfile reads (Count)
system.cpu.intRegfileWrites                  13174935                       # Number of integer regfile writes (Count)
system.cpu.fpRegfileReads                        2063                       # Number of floating regfile reads (Count)
system.cpu.fpRegfileWrites                       1459                       # Number of floating regfile writes (Count)
system.cpu.ccRegfileReads                     7797892                       # number of cc regfile reads (Count)
system.cpu.ccRegfileWrites                    5033746                       # number of cc regfile writes (Count)
system.cpu.miscRegfileReads                   7105840                       # number of misc regfile reads (Count)
system.cpu.miscRegfileWrites                     1096                       # number of misc regfile writes (Count)
system.cpu.MemDepUnit__0.insertedLoads        2836732                       # Number of loads inserted to the mem dependence unit. (Count)
system.cpu.MemDepUnit__0.insertedStores       1691525                       # Number of stores inserted to the mem dependence unit. (Count)
system.cpu.MemDepUnit__0.conflictingLoads       539536                       # Number of conflicting loads. (Count)
system.cpu.MemDepUnit__0.conflictingStores       410449                       # Number of conflicting stores. (Count)
system.cpu.MemDepUnit__1.insertedLoads              0                       # Number of loads inserted to the mem dependence unit. (Count)
system.cpu.MemDepUnit__1.insertedStores             0                       # Number of stores inserted to the mem dependence unit. (Count)
system.cpu.MemDepUnit__1.conflictingLoads            0                       # Number of conflicting loads. (Count)
system.cpu.MemDepUnit__1.conflictingStores            0                       # Number of conflicting stores. (Count)
system.cpu.MemDepUnit__2.insertedLoads              0                       # Number of loads inserted to the mem dependence unit. (Count)
system.cpu.MemDepUnit__2.insertedStores             0                       # Number of stores inserted to the mem dependence unit. (Count)
system.cpu.MemDepUnit__2.conflictingLoads            0                       # Number of conflicting loads. (Count)
system.cpu.MemDepUnit__2.conflictingStores            0                       # Number of conflicting stores. (Count)
system.cpu.MemDepUnit__3.insertedLoads              0                       # Number of loads inserted to the mem dependence unit. (Count)
system.cpu.MemDepUnit__3.insertedStores             0                       # Number of stores inserted to the mem dependence unit. (Count)
system.cpu.MemDepUnit__3.conflictingLoads            0                       # Number of conflicting loads. (Count)
system.cpu.MemDepUnit__3.conflictingStores            0                       # Number of conflicting stores. (Count)
system.cpu.branchPred.lookups                 2685469                       # Number of BP lookups (Count)
system.cpu.branchPred.condPredicted           2072933                       # Number of conditional branches predicted (Count)
system.cpu.branchPred.condIncorrect            178147                       # Number of conditional branches incorrect (Count)
system.cpu.branchPred.BTBLookups               959680                       # Number of BTB lookups (Count)
system.cpu.branchPred.BTBHits                  940405                       # Number of BTB hits (Count)
system.cpu.branchPred.BTBHitRatio            0.979915                       # BTB Hit Ratio (Ratio)
system.cpu.branchPred.RASUsed                  203831                       # Number of times the RAS was used to get a target. (Count)
system.cpu.branchPred.RASIncorrect                 75                       # Number of incorrect RAS predictions. (Count)
system.cpu.branchPred.indirectLookups           28999                       # Number of indirect predictor lookups. (Count)
system.cpu.branchPred.indirectHits              18555                       # Number of indirect target hits. (Count)
system.cpu.branchPred.indirectMisses            10444                       # Number of indirect misses. (Count)
system.cpu.branchPred.indirectMispredicted         3261                       # Number of mispredicted indirect branches. (Count)
system.cpu.commit.commitSquashedInsts         8133417                       # The number of squashed insts skipped by commit (Count)
system.cpu.commit.commitNonSpecStalls            7781                       # The number of times commit has been forced to stall to communicate backwards (Count)
system.cpu.commit.branchMispredicts            170287                       # The number of times a branch was mispredicted (Count)
system.cpu.commit.numCommittedDist::samples      4944896                       # Number of insts commited each cycle (Count)
system.cpu.commit.numCommittedDist::mean     2.324233                       # Number of insts commited each cycle (Count)
system.cpu.commit.numCommittedDist::stdev     2.754046                       # Number of insts commited each cycle (Count)
system.cpu.commit.numCommittedDist::underflows            0      0.00%      0.00% # Number of insts commited each cycle (Count)
system.cpu.commit.numCommittedDist::0         1981305     40.07%     40.07% # Number of insts commited each cycle (Count)
system.cpu.commit.numCommittedDist::1          742964     15.02%     55.09% # Number of insts commited each cycle (Count)
system.cpu.commit.numCommittedDist::2          351486      7.11%     62.20% # Number of insts commited each cycle (Count)
system.cpu.commit.numCommittedDist::3          585503     11.84%     74.04% # Number of insts commited each cycle (Count)
system.cpu.commit.numCommittedDist::4          253731      5.13%     79.17% # Number of insts commited each cycle (Count)
system.cpu.commit.numCommittedDist::5          147181      2.98%     82.15% # Number of insts commited each cycle (Count)
system.cpu.commit.numCommittedDist::6          198133      4.01%     86.16% # Number of insts commited each cycle (Count)
system.cpu.commit.numCommittedDist::7          125727      2.54%     88.70% # Number of insts commited each cycle (Count)
system.cpu.commit.numCommittedDist::8          558866     11.30%    100.00% # Number of insts commited each cycle (Count)
system.cpu.commit.numCommittedDist::overflows            0      0.00%    100.00% # Number of insts commited each cycle (Count)
system.cpu.commit.numCommittedDist::min_value            0                       # Number of insts commited each cycle (Count)
system.cpu.commit.numCommittedDist::max_value            8                       # Number of insts commited each cycle (Count)
system.cpu.commit.numCommittedDist::total      4944896                       # Number of insts commited each cycle (Count)
system.cpu.commit.instsCommitted              5989129                       # Number of instructions committed (Count)
system.cpu.commit.opsCommitted               11493089                       # Number of ops (including micro ops) committed (Count)
system.cpu.commit.memRefs                     2663210                       # Number of memory references committed (Count)
system.cpu.commit.loads                       1673889                       # Number of loads committed (Count)
system.cpu.commit.amos                              0                       # Number of atomic instructions committed (Count)
system.cpu.commit.membars                        4820                       # Number of memory barriers committed (Count)
system.cpu.commit.branches                    1314589                       # Number of branches committed (Count)
system.cpu.commit.vectorInstructions                0                       # Number of committed Vector instructions. (Count)
system.cpu.commit.floating                       1505                       # Number of committed floating point instructions. (Count)
system.cpu.commit.integer                    11432050                       # Number of committed integer instructions. (Count)
system.cpu.commit.functionCalls                 94785                       # Number of function calls committed. (Count)
system.cpu.commit.committedInstType_0::No_OpClass         3335      0.03%      0.03% # Class of committed instruction (Count)
system.cpu.commit.committedInstType_0::IntAlu      8825062     76.79%     76.81% # Class of committed instruction (Count)
system.cpu.commit.committedInstType_0::IntMult          213      0.00%     76.82% # Class of committed instruction (Count)
system.cpu.commit.committedInstType_0::IntDiv         1119      0.01%     76.83% # Class of committed instruction (Count)
system.cpu.commit.committedInstType_0::FloatAdd           50      0.00%     76.83% # Class of committed instruction (Count)
system.cpu.commit.committedInstType_0::FloatCmp          100      0.00%     76.83% # Class of committed instruction (Count)
system.cpu.commit.committedInstType_0::FloatCvt            0      0.00%     76.83% # Class of committed instruction (Count)
system.cpu.commit.committedInstType_0::FloatMult            0      0.00%     76.83% # Class of committed instruction (Count)
system.cpu.commit.committedInstType_0::FloatMultAcc            0      0.00%     76.83% # Class of committed instruction (Count)
system.cpu.commit.committedInstType_0::FloatDiv            0      0.00%     76.83% # Class of committed instruction (Count)
system.cpu.commit.committedInstType_0::FloatMisc            0      0.00%     76.83% # Class of committed instruction (Count)
system.cpu.commit.committedInstType_0::FloatSqrt            0      0.00%     76.83% # Class of committed instruction (Count)
system.cpu.commit.committedInstType_0::SimdAdd            0      0.00%     76.83% # Class of committed instruction (Count)
system.cpu.commit.committedInstType_0::SimdAddAcc            0      0.00%     76.83% # Class of committed instruction (Count)
system.cpu.commit.committedInstType_0::SimdAlu            0      0.00%     76.83% # Class of committed instruction (Count)
system.cpu.commit.committedInstType_0::SimdCmp            0      0.00%     76.83% # Class of committed instruction (Count)
system.cpu.commit.committedInstType_0::SimdCvt            0      0.00%     76.83% # Class of committed instruction (Count)
system.cpu.commit.committedInstType_0::SimdMisc            0      0.00%     76.83% # Class of committed instruction (Count)
system.cpu.commit.committedInstType_0::SimdMult            0      0.00%     76.83% # Class of committed instruction (Count)
system.cpu.commit.committedInstType_0::SimdMultAcc            0      0.00%     76.83% # Class of committed instruction (Count)
system.cpu.commit.committedInstType_0::SimdShift            0      0.00%     76.83% # Class of committed instruction (Count)
system.cpu.commit.committedInstType_0::SimdShiftAcc            0      0.00%     76.83% # Class of committed instruction (Count)
system.cpu.commit.committedInstType_0::SimdDiv            0      0.00%     76.83% # Class of committed instruction (Count)
system.cpu.commit.committedInstType_0::SimdSqrt            0      0.00%     76.83% # Class of committed instruction (Count)
system.cpu.commit.committedInstType_0::SimdFloatAdd            0      0.00%     76.83% # Class of committed instruction (Count)
system.cpu.commit.committedInstType_0::SimdFloatAlu            0      0.00%     76.83% # Class of committed instruction (Count)
system.cpu.commit.committedInstType_0::SimdFloatCmp            0      0.00%     76.83% # Class of committed instruction (Count)
system.cpu.commit.committedInstType_0::SimdFloatCvt            0      0.00%     76.83% # Class of committed instruction (Count)
system.cpu.commit.committedInstType_0::SimdFloatDiv            0      0.00%     76.83% # Class of committed instruction (Count)
system.cpu.commit.committedInstType_0::SimdFloatMisc            0      0.00%     76.83% # Class of committed instruction (Count)
system.cpu.commit.committedInstType_0::SimdFloatMult            0      0.00%     76.83% # Class of committed instruction (Count)
system.cpu.commit.committedInstType_0::SimdFloatMultAcc            0      0.00%     76.83% # Class of committed instruction (Count)
system.cpu.commit.committedInstType_0::SimdFloatSqrt            0      0.00%     76.83% # Class of committed instruction (Count)
system.cpu.commit.committedInstType_0::SimdReduceAdd            0      0.00%     76.83% # Class of committed instruction (Count)
system.cpu.commit.committedInstType_0::SimdReduceAlu            0      0.00%     76.83% # Class of committed instruction (Count)
system.cpu.commit.committedInstType_0::SimdReduceCmp            0      0.00%     76.83% # Class of committed instruction (Count)
system.cpu.commit.committedInstType_0::SimdFloatReduceAdd            0      0.00%     76.83% # Class of committed instruction (Count)
system.cpu.commit.committedInstType_0::SimdFloatReduceCmp            0      0.00%     76.83% # Class of committed instruction (Count)
system.cpu.commit.committedInstType_0::SimdAes            0      0.00%     76.83% # Class of committed instruction (Count)
system.cpu.commit.committedInstType_0::SimdAesMix            0      0.00%     76.83% # Class of committed instruction (Count)
system.cpu.commit.committedInstType_0::SimdSha1Hash            0      0.00%     76.83% # Class of committed instruction (Count)
system.cpu.commit.committedInstType_0::SimdSha1Hash2            0      0.00%     76.83% # Class of committed instruction (Count)
system.cpu.commit.committedInstType_0::SimdSha256Hash            0      0.00%     76.83% # Class of committed instruction (Count)
system.cpu.commit.committedInstType_0::SimdSha256Hash2            0      0.00%     76.83% # Class of committed instruction (Count)
system.cpu.commit.committedInstType_0::SimdShaSigma2            0      0.00%     76.83% # Class of committed instruction (Count)
system.cpu.commit.committedInstType_0::SimdShaSigma3            0      0.00%     76.83% # Class of committed instruction (Count)
system.cpu.commit.committedInstType_0::SimdPredAlu            0      0.00%     76.83% # Class of committed instruction (Count)
system.cpu.commit.committedInstType_0::MemRead      1673525     14.56%     91.39% # Class of committed instruction (Count)
system.cpu.commit.committedInstType_0::MemWrite       989077      8.61%     99.99% # Class of committed instruction (Count)
system.cpu.commit.committedInstType_0::FloatMemRead          364      0.00%    100.00% # Class of committed instruction (Count)
system.cpu.commit.committedInstType_0::FloatMemWrite          244      0.00%    100.00% # Class of committed instruction (Count)
system.cpu.commit.committedInstType_0::IprAccess            0      0.00%    100.00% # Class of committed instruction (Count)
system.cpu.commit.committedInstType_0::InstPrefetch            0      0.00%    100.00% # Class of committed instruction (Count)
system.cpu.commit.committedInstType_0::total     11493089                       # Class of committed instruction (Count)
system.cpu.commit.commitEligibleSamples        558866                       # number cycles where commit BW limit reached (Cycle)
system.cpu.dcache.demandHits::cpu.data        2821839                       # number of demand (read+write) hits (Count)
system.cpu.dcache.demandHits::total           2821839                       # number of demand (read+write) hits (Count)
system.cpu.dcache.overallHits::cpu.data       2821839                       # number of overall hits (Count)
system.cpu.dcache.overallHits::total          2821839                       # number of overall hits (Count)
system.cpu.dcache.demandMisses::cpu.data         4841                       # number of demand (read+write) misses (Count)
system.cpu.dcache.demandMisses::total            4841                       # number of demand (read+write) misses (Count)
system.cpu.dcache.overallMisses::cpu.data         4841                       # number of overall misses (Count)
system.cpu.dcache.overallMisses::total           4841                       # number of overall misses (Count)
system.cpu.dcache.demandMissLatency::cpu.data    302137499                       # number of demand (read+write) miss ticks (Tick)
system.cpu.dcache.demandMissLatency::total    302137499                       # number of demand (read+write) miss ticks (Tick)
system.cpu.dcache.overallMissLatency::cpu.data    302137499                       # number of overall miss ticks (Tick)
system.cpu.dcache.overallMissLatency::total    302137499                       # number of overall miss ticks (Tick)
system.cpu.dcache.demandAccesses::cpu.data      2826680                       # number of demand (read+write) accesses (Count)
system.cpu.dcache.demandAccesses::total       2826680                       # number of demand (read+write) accesses (Count)
system.cpu.dcache.overallAccesses::cpu.data      2826680                       # number of overall (read+write) accesses (Count)
system.cpu.dcache.overallAccesses::total      2826680                       # number of overall (read+write) accesses (Count)
system.cpu.dcache.demandMissRate::cpu.data     0.001713                       # miss rate for demand accesses (Ratio)
system.cpu.dcache.demandMissRate::total      0.001713                       # miss rate for demand accesses (Ratio)
system.cpu.dcache.overallMissRate::cpu.data     0.001713                       # miss rate for overall accesses (Ratio)
system.cpu.dcache.overallMissRate::total     0.001713                       # miss rate for overall accesses (Ratio)
system.cpu.dcache.demandAvgMissLatency::cpu.data 62412.208015                       # average overall miss latency ((Cycle/Count))
system.cpu.dcache.demandAvgMissLatency::total 62412.208015                       # average overall miss latency ((Cycle/Count))
system.cpu.dcache.overallAvgMissLatency::cpu.data 62412.208015                       # average overall miss latency ((Cycle/Count))
system.cpu.dcache.overallAvgMissLatency::total 62412.208015                       # average overall miss latency ((Cycle/Count))
system.cpu.dcache.blockedCycles::no_mshrs          449                       # number of cycles access was blocked (Cycle)
system.cpu.dcache.blockedCycles::no_targets            0                       # number of cycles access was blocked (Cycle)
system.cpu.dcache.blockedCauses::no_mshrs            9                       # number of times access was blocked (Count)
system.cpu.dcache.blockedCauses::no_targets            0                       # number of times access was blocked (Count)
system.cpu.dcache.avgBlocked::no_mshrs      49.888889                       # average number of cycles each access was blocked ((Cycle/Count))
system.cpu.dcache.avgBlocked::no_targets          nan                       # average number of cycles each access was blocked ((Cycle/Count))
system.cpu.dcache.writebacks::writebacks         1892                       # number of writebacks (Count)
system.cpu.dcache.writebacks::total              1892                       # number of writebacks (Count)
system.cpu.dcache.demandMshrHits::cpu.data         1640                       # number of demand (read+write) MSHR hits (Count)
system.cpu.dcache.demandMshrHits::total          1640                       # number of demand (read+write) MSHR hits (Count)
system.cpu.dcache.overallMshrHits::cpu.data         1640                       # number of overall MSHR hits (Count)
system.cpu.dcache.overallMshrHits::total         1640                       # number of overall MSHR hits (Count)
system.cpu.dcache.demandMshrMisses::cpu.data         3201                       # number of demand (read+write) MSHR misses (Count)
system.cpu.dcache.demandMshrMisses::total         3201                       # number of demand (read+write) MSHR misses (Count)
system.cpu.dcache.overallMshrMisses::cpu.data         3201                       # number of overall MSHR misses (Count)
system.cpu.dcache.overallMshrMisses::total         3201                       # number of overall MSHR misses (Count)
system.cpu.dcache.demandMshrMissLatency::cpu.data    192581000                       # number of demand (read+write) MSHR miss ticks (Tick)
system.cpu.dcache.demandMshrMissLatency::total    192581000                       # number of demand (read+write) MSHR miss ticks (Tick)
system.cpu.dcache.overallMshrMissLatency::cpu.data    192581000                       # number of overall MSHR miss ticks (Tick)
system.cpu.dcache.overallMshrMissLatency::total    192581000                       # number of overall MSHR miss ticks (Tick)
system.cpu.dcache.demandMshrMissRate::cpu.data     0.001132                       # mshr miss ratio for demand accesses (Ratio)
system.cpu.dcache.demandMshrMissRate::total     0.001132                       # mshr miss ratio for demand accesses (Ratio)
system.cpu.dcache.overallMshrMissRate::cpu.data     0.001132                       # mshr miss ratio for overall accesses (Ratio)
system.cpu.dcache.overallMshrMissRate::total     0.001132                       # mshr miss ratio for overall accesses (Ratio)
system.cpu.dcache.demandAvgMshrMissLatency::cpu.data 60162.761637                       # average overall mshr miss latency ((Cycle/Count))
system.cpu.dcache.demandAvgMshrMissLatency::total 60162.761637                       # average overall mshr miss latency ((Cycle/Count))
system.cpu.dcache.overallAvgMshrMissLatency::cpu.data 60162.761637                       # average overall mshr miss latency ((Cycle/Count))
system.cpu.dcache.overallAvgMshrMissLatency::total 60162.761637                       # average overall mshr miss latency ((Cycle/Count))
system.cpu.dcache.replacements                   2687                       # number of replacements (Count)
system.cpu.dcache.ReadReq.hits::cpu.data      1833936                       # number of ReadReq hits (Count)
system.cpu.dcache.ReadReq.hits::total         1833936                       # number of ReadReq hits (Count)
system.cpu.dcache.ReadReq.misses::cpu.data         3339                       # number of ReadReq misses (Count)
system.cpu.dcache.ReadReq.misses::total          3339                       # number of ReadReq misses (Count)
system.cpu.dcache.ReadReq.missLatency::cpu.data    189337000                       # number of ReadReq miss ticks (Tick)
system.cpu.dcache.ReadReq.missLatency::total    189337000                       # number of ReadReq miss ticks (Tick)
system.cpu.dcache.ReadReq.accesses::cpu.data      1837275                       # number of ReadReq accesses(hits+misses) (Count)
system.cpu.dcache.ReadReq.accesses::total      1837275                       # number of ReadReq accesses(hits+misses) (Count)
system.cpu.dcache.ReadReq.missRate::cpu.data     0.001817                       # miss rate for ReadReq accesses (Ratio)
system.cpu.dcache.ReadReq.missRate::total     0.001817                       # miss rate for ReadReq accesses (Ratio)
system.cpu.dcache.ReadReq.avgMissLatency::cpu.data 56704.702007                       # average ReadReq miss latency ((Tick/Count))
system.cpu.dcache.ReadReq.avgMissLatency::total 56704.702007                       # average ReadReq miss latency ((Tick/Count))
system.cpu.dcache.ReadReq.mshrHits::cpu.data         1612                       # number of ReadReq MSHR hits (Count)
system.cpu.dcache.ReadReq.mshrHits::total         1612                       # number of ReadReq MSHR hits (Count)
system.cpu.dcache.ReadReq.mshrMisses::cpu.data         1727                       # number of ReadReq MSHR misses (Count)
system.cpu.dcache.ReadReq.mshrMisses::total         1727                       # number of ReadReq MSHR misses (Count)
system.cpu.dcache.ReadReq.mshrMissLatency::cpu.data     82863500                       # number of ReadReq MSHR miss ticks (Tick)
system.cpu.dcache.ReadReq.mshrMissLatency::total     82863500                       # number of ReadReq MSHR miss ticks (Tick)
system.cpu.dcache.ReadReq.mshrMissRate::cpu.data     0.000940                       # mshr miss rate for ReadReq accesses (Ratio)
system.cpu.dcache.ReadReq.mshrMissRate::total     0.000940                       # mshr miss rate for ReadReq accesses (Ratio)
system.cpu.dcache.ReadReq.avgMshrMissLatency::cpu.data 47981.181239                       # average ReadReq mshr miss latency ((Tick/Count))
system.cpu.dcache.ReadReq.avgMshrMissLatency::total 47981.181239                       # average ReadReq mshr miss latency ((Tick/Count))
system.cpu.dcache.WriteReq.hits::cpu.data       987903                       # number of WriteReq hits (Count)
system.cpu.dcache.WriteReq.hits::total         987903                       # number of WriteReq hits (Count)
system.cpu.dcache.WriteReq.misses::cpu.data         1502                       # number of WriteReq misses (Count)
system.cpu.dcache.WriteReq.misses::total         1502                       # number of WriteReq misses (Count)
system.cpu.dcache.WriteReq.missLatency::cpu.data    112800499                       # number of WriteReq miss ticks (Tick)
system.cpu.dcache.WriteReq.missLatency::total    112800499                       # number of WriteReq miss ticks (Tick)
system.cpu.dcache.WriteReq.accesses::cpu.data       989405                       # number of WriteReq accesses(hits+misses) (Count)
system.cpu.dcache.WriteReq.accesses::total       989405                       # number of WriteReq accesses(hits+misses) (Count)
system.cpu.dcache.WriteReq.missRate::cpu.data     0.001518                       # miss rate for WriteReq accesses (Ratio)
system.cpu.dcache.WriteReq.missRate::total     0.001518                       # miss rate for WriteReq accesses (Ratio)
system.cpu.dcache.WriteReq.avgMissLatency::cpu.data 75100.199068                       # average WriteReq miss latency ((Tick/Count))
system.cpu.dcache.WriteReq.avgMissLatency::total 75100.199068                       # average WriteReq miss latency ((Tick/Count))
system.cpu.dcache.WriteReq.mshrHits::cpu.data           28                       # number of WriteReq MSHR hits (Count)
system.cpu.dcache.WriteReq.mshrHits::total           28                       # number of WriteReq MSHR hits (Count)
system.cpu.dcache.WriteReq.mshrMisses::cpu.data         1474                       # number of WriteReq MSHR misses (Count)
system.cpu.dcache.WriteReq.mshrMisses::total         1474                       # number of WriteReq MSHR misses (Count)
system.cpu.dcache.WriteReq.mshrMissLatency::cpu.data    109717500                       # number of WriteReq MSHR miss ticks (Tick)
system.cpu.dcache.WriteReq.mshrMissLatency::total    109717500                       # number of WriteReq MSHR miss ticks (Tick)
system.cpu.dcache.WriteReq.mshrMissRate::cpu.data     0.001490                       # mshr miss rate for WriteReq accesses (Ratio)
system.cpu.dcache.WriteReq.mshrMissRate::total     0.001490                       # mshr miss rate for WriteReq accesses (Ratio)
system.cpu.dcache.WriteReq.avgMshrMissLatency::cpu.data 74435.210312                       # average WriteReq mshr miss latency ((Tick/Count))
system.cpu.dcache.WriteReq.avgMshrMissLatency::total 74435.210312                       # average WriteReq mshr miss latency ((Tick/Count))
system.cpu.dcache.power_state.pwrStateResidencyTicks::UNDEFINED   3117827500                       # Cumulative time (in ticks) in various power states (Tick)
system.cpu.dcache.tags.tagsInUse           487.160376                       # Average ticks per tags in use ((Tick/Count))
system.cpu.dcache.tags.totalRefs              2825040                       # Total number of references to valid blocks. (Count)
system.cpu.dcache.tags.sampledRefs               3199                       # Sample count of references to valid blocks. (Count)
system.cpu.dcache.tags.avgRefs             883.100969                       # Average number of references to valid blocks. ((Count/Count))
system.cpu.dcache.tags.warmupTick              176500                       # The tick when the warmup percentage was hit. (Tick)
system.cpu.dcache.tags.occupancies::cpu.data   487.160376                       # Average occupied blocks per tick, per requestor ((Count/Tick))
system.cpu.dcache.tags.avgOccs::cpu.data     0.951485                       # Average percentage of cache occupancy ((Ratio/Tick))
system.cpu.dcache.tags.avgOccs::total        0.951485                       # Average percentage of cache occupancy ((Ratio/Tick))
system.cpu.dcache.tags.occupanciesTaskId::1024          512                       # Occupied blocks per task id (Count)
system.cpu.dcache.tags.ageTaskId_1024::0           47                       # Occupied blocks per task id, per block age (Count)
system.cpu.dcache.tags.ageTaskId_1024::1           15                       # Occupied blocks per task id, per block age (Count)
system.cpu.dcache.tags.ageTaskId_1024::2          351                       # Occupied blocks per task id, per block age (Count)
system.cpu.dcache.tags.ageTaskId_1024::3           99                       # Occupied blocks per task id, per block age (Count)
system.cpu.dcache.tags.ratioOccsTaskId::1024            1                       # Ratio of occupied blocks and all blocks, per task id (Ratio)
system.cpu.dcache.tags.tagAccesses           11309919                       # Number of tag accesses (Count)
system.cpu.dcache.tags.dataAccesses          11309919                       # Number of data accesses (Count)
system.cpu.dcache.tags.power_state.pwrStateResidencyTicks::UNDEFINED   3117827500                       # Cumulative time (in ticks) in various power states (Tick)
system.cpu.decode.idleCycles                  1386883                       # Number of cycles decode is idle (Cycle)
system.cpu.decode.blockedCycles               1295068                       # Number of cycles decode is blocked (Cycle)
system.cpu.decode.runCycles                   2957688                       # Number of cycles decode is running (Cycle)
system.cpu.decode.unblockCycles                272748                       # Number of cycles decode is unblocking (Cycle)
system.cpu.decode.squashCycles                 175775                       # Number of cycles decode is squashing (Cycle)
system.cpu.decode.branchResolved               882848                       # Number of times decode resolved a branch (Count)
system.cpu.decode.branchMispred                  9097                       # Number of times decode detected a branch misprediction (Count)
system.cpu.decode.decodedInsts               21872082                       # Number of instructions handled by decode (Count)
system.cpu.decode.squashedInsts                 40865                       # Number of squashed instructions handled by decode (Count)
system.cpu.dtb_walker_cache.blockedCycles::no_mshrs            0                       # number of cycles access was blocked (Cycle)
system.cpu.dtb_walker_cache.blockedCycles::no_targets            0                       # number of cycles access was blocked (Cycle)
system.cpu.dtb_walker_cache.blockedCauses::no_mshrs            0                       # number of times access was blocked (Count)
system.cpu.dtb_walker_cache.blockedCauses::no_targets            0                       # number of times access was blocked (Count)
system.cpu.dtb_walker_cache.avgBlocked::no_mshrs          nan                       # average number of cycles each access was blocked ((Cycle/Count))
system.cpu.dtb_walker_cache.avgBlocked::no_targets          nan                       # average number of cycles each access was blocked ((Cycle/Count))
system.cpu.dtb_walker_cache.replacements            0                       # number of replacements (Count)
system.cpu.dtb_walker_cache.power_state.pwrStateResidencyTicks::UNDEFINED   3117827500                       # Cumulative time (in ticks) in various power states (Tick)
system.cpu.dtb_walker_cache.tags.tagsInUse            0                       # Average ticks per tags in use ((Tick/Count))
system.cpu.dtb_walker_cache.tags.totalRefs            0                       # Total number of references to valid blocks. (Count)
system.cpu.dtb_walker_cache.tags.sampledRefs            0                       # Sample count of references to valid blocks. (Count)
system.cpu.dtb_walker_cache.tags.avgRefs          nan                       # Average number of references to valid blocks. ((Count/Count))
system.cpu.dtb_walker_cache.tags.warmupTick            0                       # The tick when the warmup percentage was hit. (Tick)
system.cpu.dtb_walker_cache.tags.tagAccesses            0                       # Number of tag accesses (Count)
system.cpu.dtb_walker_cache.tags.dataAccesses            0                       # Number of data accesses (Count)
system.cpu.dtb_walker_cache.tags.power_state.pwrStateResidencyTicks::UNDEFINED   3117827500                       # Cumulative time (in ticks) in various power states (Tick)
system.cpu.fetch.icacheStallCycles            1707453                       # Number of cycles fetch is stalled on an Icache miss (Cycle)
system.cpu.fetch.insts                       11930444                       # Number of instructions fetch has processed (Count)
system.cpu.fetch.branches                     2685469                       # Number of branches that fetch encountered (Count)
system.cpu.fetch.predictedBranches            1162791                       # Number of branches that fetch has predicted taken (Count)
system.cpu.fetch.cycles                       4187048                       # Number of cycles fetch has run and was not squashing or blocked (Cycle)
system.cpu.fetch.squashCycles                  367862                       # Number of cycles fetch has spent squashing (Cycle)
system.cpu.fetch.miscStallCycles                  383                       # Number of cycles fetch has spent waiting on interrupts, or bad addresses, or out of MSHRs (Cycle)
system.cpu.fetch.pendingTrapStallCycles          3332                       # Number of stall cycles due to pending traps (Cycle)
system.cpu.fetch.pendingQuiesceStallCycles         6013                       # Number of stall cycles due to pending quiesce instructions (Cycle)
system.cpu.fetch.icacheWaitRetryStallCycles            2                       # Number of stall cycles due to full MSHR (Cycle)
system.cpu.fetch.cacheLines                   1409071                       # Number of cache lines fetched (Count)
system.cpu.fetch.icacheSquashes                 52340                       # Number of outstanding Icache misses that were squashed (Count)
system.cpu.fetch.nisnDist::samples            6088162                       # Number of instructions fetched each cycle (Total) (Count)
system.cpu.fetch.nisnDist::mean              3.804294                       # Number of instructions fetched each cycle (Total) (Count)
system.cpu.fetch.nisnDist::stdev             3.606355                       # Number of instructions fetched each cycle (Total) (Count)
system.cpu.fetch.nisnDist::underflows               0      0.00%      0.00% # Number of instructions fetched each cycle (Total) (Count)
system.cpu.fetch.nisnDist::0                  2376046     39.03%     39.03% # Number of instructions fetched each cycle (Total) (Count)
system.cpu.fetch.nisnDist::1                   273491      4.49%     43.52% # Number of instructions fetched each cycle (Total) (Count)
system.cpu.fetch.nisnDist::2                   304386      5.00%     48.52% # Number of instructions fetched each cycle (Total) (Count)
system.cpu.fetch.nisnDist::3                   122821      2.02%     50.54% # Number of instructions fetched each cycle (Total) (Count)
system.cpu.fetch.nisnDist::4                   256355      4.21%     54.75% # Number of instructions fetched each cycle (Total) (Count)
system.cpu.fetch.nisnDist::5                   203171      3.34%     58.08% # Number of instructions fetched each cycle (Total) (Count)
system.cpu.fetch.nisnDist::6                   192215      3.16%     61.24% # Number of instructions fetched each cycle (Total) (Count)
system.cpu.fetch.nisnDist::7                   161548      2.65%     63.90% # Number of instructions fetched each cycle (Total) (Count)
system.cpu.fetch.nisnDist::8                  2198129     36.10%    100.00% # Number of instructions fetched each cycle (Total) (Count)
system.cpu.fetch.nisnDist::overflows                0      0.00%    100.00% # Number of instructions fetched each cycle (Total) (Count)
system.cpu.fetch.nisnDist::min_value                0                       # Number of instructions fetched each cycle (Total) (Count)
system.cpu.fetch.nisnDist::max_value                8                       # Number of instructions fetched each cycle (Total) (Count)
system.cpu.fetch.nisnDist::total              6088162                       # Number of instructions fetched each cycle (Total) (Count)
system.cpu.fetch.branchRate                  0.430663                       # Number of branch fetches per cycle (Ratio)
system.cpu.fetch.rate                        1.913262                       # Number of inst fetches per cycle ((Count/Cycle))
system.cpu.icache.demandHits::cpu.inst        1394531                       # number of demand (read+write) hits (Count)
system.cpu.icache.demandHits::total           1394531                       # number of demand (read+write) hits (Count)
system.cpu.icache.overallHits::cpu.inst       1394531                       # number of overall hits (Count)
system.cpu.icache.overallHits::total          1394531                       # number of overall hits (Count)
system.cpu.icache.demandMisses::cpu.inst        14539                       # number of demand (read+write) misses (Count)
system.cpu.icache.demandMisses::total           14539                       # number of demand (read+write) misses (Count)
system.cpu.icache.overallMisses::cpu.inst        14539                       # number of overall misses (Count)
system.cpu.icache.overallMisses::total          14539                       # number of overall misses (Count)
system.cpu.icache.demandMissLatency::cpu.inst    329361000                       # number of demand (read+write) miss ticks (Tick)
system.cpu.icache.demandMissLatency::total    329361000                       # number of demand (read+write) miss ticks (Tick)
system.cpu.icache.overallMissLatency::cpu.inst    329361000                       # number of overall miss ticks (Tick)
system.cpu.icache.overallMissLatency::total    329361000                       # number of overall miss ticks (Tick)
system.cpu.icache.demandAccesses::cpu.inst      1409070                       # number of demand (read+write) accesses (Count)
system.cpu.icache.demandAccesses::total       1409070                       # number of demand (read+write) accesses (Count)
system.cpu.icache.overallAccesses::cpu.inst      1409070                       # number of overall (read+write) accesses (Count)
system.cpu.icache.overallAccesses::total      1409070                       # number of overall (read+write) accesses (Count)
system.cpu.icache.demandMissRate::cpu.inst     0.010318                       # miss rate for demand accesses (Ratio)
system.cpu.icache.demandMissRate::total      0.010318                       # miss rate for demand accesses (Ratio)
system.cpu.icache.overallMissRate::cpu.inst     0.010318                       # miss rate for overall accesses (Ratio)
system.cpu.icache.overallMissRate::total     0.010318                       # miss rate for overall accesses (Ratio)
system.cpu.icache.demandAvgMissLatency::cpu.inst 22653.621294                       # average overall miss latency ((Cycle/Count))
system.cpu.icache.demandAvgMissLatency::total 22653.621294                       # average overall miss latency ((Cycle/Count))
system.cpu.icache.overallAvgMissLatency::cpu.inst 22653.621294                       # average overall miss latency ((Cycle/Count))
system.cpu.icache.overallAvgMissLatency::total 22653.621294                       # average overall miss latency ((Cycle/Count))
system.cpu.icache.blockedCycles::no_mshrs          139                       # number of cycles access was blocked (Cycle)
system.cpu.icache.blockedCycles::no_targets            0                       # number of cycles access was blocked (Cycle)
system.cpu.icache.blockedCauses::no_mshrs            3                       # number of times access was blocked (Count)
system.cpu.icache.blockedCauses::no_targets            0                       # number of times access was blocked (Count)
system.cpu.icache.avgBlocked::no_mshrs      46.333333                       # average number of cycles each access was blocked ((Cycle/Count))
system.cpu.icache.avgBlocked::no_targets          nan                       # average number of cycles each access was blocked ((Cycle/Count))
system.cpu.icache.writebacks::writebacks        11599                       # number of writebacks (Count)
system.cpu.icache.writebacks::total             11599                       # number of writebacks (Count)
system.cpu.icache.demandMshrHits::cpu.inst         2425                       # number of demand (read+write) MSHR hits (Count)
system.cpu.icache.demandMshrHits::total          2425                       # number of demand (read+write) MSHR hits (Count)
system.cpu.icache.overallMshrHits::cpu.inst         2425                       # number of overall MSHR hits (Count)
system.cpu.icache.overallMshrHits::total         2425                       # number of overall MSHR hits (Count)
system.cpu.icache.demandMshrMisses::cpu.inst        12114                       # number of demand (read+write) MSHR misses (Count)
system.cpu.icache.demandMshrMisses::total        12114                       # number of demand (read+write) MSHR misses (Count)
system.cpu.icache.overallMshrMisses::cpu.inst        12114                       # number of overall MSHR misses (Count)
system.cpu.icache.overallMshrMisses::total        12114                       # number of overall MSHR misses (Count)
system.cpu.icache.demandMshrMissLatency::cpu.inst    272000000                       # number of demand (read+write) MSHR miss ticks (Tick)
system.cpu.icache.demandMshrMissLatency::total    272000000                       # number of demand (read+write) MSHR miss ticks (Tick)
system.cpu.icache.overallMshrMissLatency::cpu.inst    272000000                       # number of overall MSHR miss ticks (Tick)
system.cpu.icache.overallMshrMissLatency::total    272000000                       # number of overall MSHR miss ticks (Tick)
system.cpu.icache.demandMshrMissRate::cpu.inst     0.008597                       # mshr miss ratio for demand accesses (Ratio)
system.cpu.icache.demandMshrMissRate::total     0.008597                       # mshr miss ratio for demand accesses (Ratio)
system.cpu.icache.overallMshrMissRate::cpu.inst     0.008597                       # mshr miss ratio for overall accesses (Ratio)
system.cpu.icache.overallMshrMissRate::total     0.008597                       # mshr miss ratio for overall accesses (Ratio)
system.cpu.icache.demandAvgMshrMissLatency::cpu.inst 22453.359749                       # average overall mshr miss latency ((Cycle/Count))
system.cpu.icache.demandAvgMshrMissLatency::total 22453.359749                       # average overall mshr miss latency ((Cycle/Count))
system.cpu.icache.overallAvgMshrMissLatency::cpu.inst 22453.359749                       # average overall mshr miss latency ((Cycle/Count))
system.cpu.icache.overallAvgMshrMissLatency::total 22453.359749                       # average overall mshr miss latency ((Cycle/Count))
system.cpu.icache.replacements                  11599                       # number of replacements (Count)
system.cpu.icache.ReadReq.hits::cpu.inst      1394531                       # number of ReadReq hits (Count)
system.cpu.icache.ReadReq.hits::total         1394531                       # number of ReadReq hits (Count)
system.cpu.icache.ReadReq.misses::cpu.inst        14539                       # number of ReadReq misses (Count)
system.cpu.icache.ReadReq.misses::total         14539                       # number of ReadReq misses (Count)
system.cpu.icache.ReadReq.missLatency::cpu.inst    329361000                       # number of ReadReq miss ticks (Tick)
system.cpu.icache.ReadReq.missLatency::total    329361000                       # number of ReadReq miss ticks (Tick)
system.cpu.icache.ReadReq.accesses::cpu.inst      1409070                       # number of ReadReq accesses(hits+misses) (Count)
system.cpu.icache.ReadReq.accesses::total      1409070                       # number of ReadReq accesses(hits+misses) (Count)
system.cpu.icache.ReadReq.missRate::cpu.inst     0.010318                       # miss rate for ReadReq accesses (Ratio)
system.cpu.icache.ReadReq.missRate::total     0.010318                       # miss rate for ReadReq accesses (Ratio)
system.cpu.icache.ReadReq.avgMissLatency::cpu.inst 22653.621294                       # average ReadReq miss latency ((Tick/Count))
system.cpu.icache.ReadReq.avgMissLatency::total 22653.621294                       # average ReadReq miss latency ((Tick/Count))
system.cpu.icache.ReadReq.mshrHits::cpu.inst         2425                       # number of ReadReq MSHR hits (Count)
system.cpu.icache.ReadReq.mshrHits::total         2425                       # number of ReadReq MSHR hits (Count)
system.cpu.icache.ReadReq.mshrMisses::cpu.inst        12114                       # number of ReadReq MSHR misses (Count)
system.cpu.icache.ReadReq.mshrMisses::total        12114                       # number of ReadReq MSHR misses (Count)
system.cpu.icache.ReadReq.mshrMissLatency::cpu.inst    272000000                       # number of ReadReq MSHR miss ticks (Tick)
system.cpu.icache.ReadReq.mshrMissLatency::total    272000000                       # number of ReadReq MSHR miss ticks (Tick)
system.cpu.icache.ReadReq.mshrMissRate::cpu.inst     0.008597                       # mshr miss rate for ReadReq accesses (Ratio)
system.cpu.icache.ReadReq.mshrMissRate::total     0.008597                       # mshr miss rate for ReadReq accesses (Ratio)
system.cpu.icache.ReadReq.avgMshrMissLatency::cpu.inst 22453.359749                       # average ReadReq mshr miss latency ((Tick/Count))
system.cpu.icache.ReadReq.avgMshrMissLatency::total 22453.359749                       # average ReadReq mshr miss latency ((Tick/Count))
system.cpu.icache.power_state.pwrStateResidencyTicks::UNDEFINED   3117827500                       # Cumulative time (in ticks) in various power states (Tick)
system.cpu.icache.tags.tagsInUse           504.206652                       # Average ticks per tags in use ((Tick/Count))
system.cpu.icache.tags.totalRefs              1406644                       # Total number of references to valid blocks. (Count)
system.cpu.icache.tags.sampledRefs              12113                       # Sample count of references to valid blocks. (Count)
system.cpu.icache.tags.avgRefs             116.126806                       # Average number of references to valid blocks. ((Count/Count))
system.cpu.icache.tags.warmupTick               87500                       # The tick when the warmup percentage was hit. (Tick)
system.cpu.icache.tags.occupancies::cpu.inst   504.206652                       # Average occupied blocks per tick, per requestor ((Count/Tick))
system.cpu.icache.tags.avgOccs::cpu.inst     0.984779                       # Average percentage of cache occupancy ((Ratio/Tick))
system.cpu.icache.tags.avgOccs::total        0.984779                       # Average percentage of cache occupancy ((Ratio/Tick))
system.cpu.icache.tags.occupanciesTaskId::1024          512                       # Occupied blocks per task id (Count)
system.cpu.icache.tags.ageTaskId_1024::0           90                       # Occupied blocks per task id, per block age (Count)
system.cpu.icache.tags.ageTaskId_1024::1           53                       # Occupied blocks per task id, per block age (Count)
system.cpu.icache.tags.ageTaskId_1024::2          297                       # Occupied blocks per task id, per block age (Count)
system.cpu.icache.tags.ageTaskId_1024::3           72                       # Occupied blocks per task id, per block age (Count)
system.cpu.icache.tags.ratioOccsTaskId::1024            1                       # Ratio of occupied blocks and all blocks, per task id (Ratio)
system.cpu.icache.tags.tagAccesses            5648393                       # Number of tag accesses (Count)
system.cpu.icache.tags.dataAccesses           5648393                       # Number of data accesses (Count)
system.cpu.icache.tags.power_state.pwrStateResidencyTicks::UNDEFINED   3117827500                       # Cumulative time (in ticks) in various power states (Tick)
system.cpu.interrupts.clk_domain.clock           8000                       # Clock period in ticks (Tick)
system.cpu.itb_walker_cache.blockedCycles::no_mshrs            0                       # number of cycles access was blocked (Cycle)
system.cpu.itb_walker_cache.blockedCycles::no_targets            0                       # number of cycles access was blocked (Cycle)
system.cpu.itb_walker_cache.blockedCauses::no_mshrs            0                       # number of times access was blocked (Count)
system.cpu.itb_walker_cache.blockedCauses::no_targets            0                       # number of times access was blocked (Count)
system.cpu.itb_walker_cache.avgBlocked::no_mshrs          nan                       # average number of cycles each access was blocked ((Cycle/Count))
system.cpu.itb_walker_cache.avgBlocked::no_targets          nan                       # average number of cycles each access was blocked ((Cycle/Count))
system.cpu.itb_walker_cache.replacements            0                       # number of replacements (Count)
system.cpu.itb_walker_cache.power_state.pwrStateResidencyTicks::UNDEFINED   3117827500                       # Cumulative time (in ticks) in various power states (Tick)
system.cpu.itb_walker_cache.tags.tagsInUse            0                       # Average ticks per tags in use ((Tick/Count))
system.cpu.itb_walker_cache.tags.totalRefs            0                       # Total number of references to valid blocks. (Count)
system.cpu.itb_walker_cache.tags.sampledRefs            0                       # Sample count of references to valid blocks. (Count)
system.cpu.itb_walker_cache.tags.avgRefs          nan                       # Average number of references to valid blocks. ((Count/Count))
system.cpu.itb_walker_cache.tags.warmupTick            0                       # The tick when the warmup percentage was hit. (Tick)
system.cpu.itb_walker_cache.tags.tagAccesses            0                       # Number of tag accesses (Count)
system.cpu.itb_walker_cache.tags.dataAccesses            0                       # Number of data accesses (Count)
system.cpu.itb_walker_cache.tags.power_state.pwrStateResidencyTicks::UNDEFINED   3117827500                       # Cumulative time (in ticks) in various power states (Tick)
system.cpu.lsq0.forwLoads                      423352                       # Number of loads that had data forwarded from stores (Count)
system.cpu.lsq0.squashedLoads                 1162836                       # Number of loads squashed (Count)
system.cpu.lsq0.ignoredResponses                 3070                       # Number of memory responses ignored because the instruction is squashed (Count)
system.cpu.lsq0.memOrderViolation                6437                       # Number of memory ordering violations (Count)
system.cpu.lsq0.squashedStores                 702199                       # Number of stores squashed (Count)
system.cpu.lsq0.rescheduledLoads                   52                       # Number of loads that were rescheduled (Count)
system.cpu.lsq0.blockedByCache                      7                       # Number of times an access to memory failed due to the cache being blocked (Count)
system.cpu.lsq0.loadToUse::samples            1673889                       # Distribution of cycle latency between the first time a load is issued and its completion (Unspecified)
system.cpu.lsq0.loadToUse::mean              3.092976                       # Distribution of cycle latency between the first time a load is issued and its completion (Unspecified)
system.cpu.lsq0.loadToUse::stdev             4.229835                       # Distribution of cycle latency between the first time a load is issued and its completion (Unspecified)
system.cpu.lsq0.loadToUse::0-9                1672123     99.89%     99.89% # Distribution of cycle latency between the first time a load is issued and its completion (Unspecified)
system.cpu.lsq0.loadToUse::10-19                   93      0.01%     99.90% # Distribution of cycle latency between the first time a load is issued and its completion (Unspecified)
system.cpu.lsq0.loadToUse::20-29                  803      0.05%     99.95% # Distribution of cycle latency between the first time a load is issued and its completion (Unspecified)
system.cpu.lsq0.loadToUse::30-39                    6      0.00%     99.95% # Distribution of cycle latency between the first time a load is issued and its completion (Unspecified)
system.cpu.lsq0.loadToUse::40-49                    1      0.00%     99.95% # Distribution of cycle latency between the first time a load is issued and its completion (Unspecified)
system.cpu.lsq0.loadToUse::50-59                    1      0.00%     99.95% # Distribution of cycle latency between the first time a load is issued and its completion (Unspecified)
[...]
system.mem_ctrls.dram.perBankWrBursts::14            4                       # Per bank write bursts (Count)
system.mem_ctrls.dram.perBankWrBursts::15           20                       # Per bank write bursts (Count)
system.mem_ctrls.dram.totQLat                43469500                       # Total ticks spent queuing (Tick)
system.mem_ctrls.dram.totBusLat              19915000                       # Total ticks spent in databus transfers (Tick)
system.mem_ctrls.dram.totMemAccLat          118150750                       # Total ticks spent from burst creation until serviced by the DRAM (Tick)
system.mem_ctrls.dram.avgQLat                10913.76                       # Average queueing delay per DRAM burst ((Tick/Count))
system.mem_ctrls.dram.avgBusLat               5000.00                       # Average bus latency per DRAM burst ((Tick/Count))
system.mem_ctrls.dram.avgMemAccLat           29663.76                       # Average memory access latency per DRAM burst ((Tick/Count))
system.mem_ctrls.dram.readRowHits                2680                       # Number of row buffer hits during reads (Count)
system.mem_ctrls.dram.writeRowHits                 28                       # Number of row buffer hits during writes (Count)
system.mem_ctrls.dram.readRowHitRate            67.29                       # Row buffer hit rate for reads (Ratio)
system.mem_ctrls.dram.writeRowHitRate           77.78                       # Row buffer hit rate for writes (Ratio)
system.mem_ctrls.dram.bytesPerActivate::samples         1302                       # Bytes accessed per row activation (Byte)
system.mem_ctrls.dram.bytesPerActivate::mean   196.522273                       # Bytes accessed per row activation (Byte)
system.mem_ctrls.dram.bytesPerActivate::gmean   134.201893                       # Bytes accessed per row activation (Byte)
system.mem_ctrls.dram.bytesPerActivate::stdev   210.913661                       # Bytes accessed per row activation (Byte)
system.mem_ctrls.dram.bytesPerActivate::0-127          571     43.86%     43.86% # Bytes accessed per row activation (Byte)
system.mem_ctrls.dram.bytesPerActivate::128-255          390     29.95%     73.81% # Bytes accessed per row activation (Byte)
system.mem_ctrls.dram.bytesPerActivate::256-383          159     12.21%     86.02% # Bytes accessed per row activation (Byte)
system.mem_ctrls.dram.bytesPerActivate::384-511           62      4.76%     90.78% # Bytes accessed per row activation (Byte)
system.mem_ctrls.dram.bytesPerActivate::512-639           41      3.15%     93.93% # Bytes accessed per row activation (Byte)
system.mem_ctrls.dram.bytesPerActivate::640-767           20      1.54%     95.47% # Bytes accessed per row activation (Byte)
system.mem_ctrls.dram.bytesPerActivate::768-895           17      1.31%     96.77% # Bytes accessed per row activation (Byte)
system.mem_ctrls.dram.bytesPerActivate::896-1023           12      0.92%     97.70% # Bytes accessed per row activation (Byte)
system.mem_ctrls.dram.bytesPerActivate::1024-1151           30      2.30%    100.00% # Bytes accessed per row activation (Byte)
system.mem_ctrls.dram.bytesPerActivate::total         1302                       # Bytes accessed per row activation (Byte)
system.mem_ctrls.dram.bytesRead                254912                       # Total number of bytes read from DRAM (Byte)
system.mem_ctrls.dram.bytesWritten               2304                       # Total number of bytes written to DRAM (Byte)
system.mem_ctrls.dram.avgRdBW               81.759494                       # Average DRAM read bandwidth in MiBytes/s ((Byte/Second))
system.mem_ctrls.dram.avgWrBW                0.738976                       # Average DRAM write bandwidth in MiBytes/s ((Byte/Second))
system.mem_ctrls.dram.peakBW                 12800.00                       # Theoretical peak bandwidth in MiByte/s ((Byte/Second))
system.mem_ctrls.dram.busUtil                    0.64                       # Data bus utilization in percentage (Ratio)
system.mem_ctrls.dram.busUtilRead                0.64                       # Data bus utilization in percentage for reads (Ratio)
system.mem_ctrls.dram.busUtilWrite               0.01                       # Data bus utilization in percentage for writes (Ratio)
system.mem_ctrls.dram.pageHitRate               67.38                       # Row buffer hit rate, read and write combined (Ratio)
system.mem_ctrls.dram.power_state.pwrStateResidencyTicks::UNDEFINED   3117827500                       # Cumulative time (in ticks) in various power states (Tick)
system.mem_ctrls.dram.rank0.actEnergy         5919060                       # Energy for activate commands per rank (pJ) (Joule)
system.mem_ctrls.dram.rank0.preEnergy         3127080                       # Energy for precharge commands per rank (pJ) (Joule)
system.mem_ctrls.dram.rank0.readEnergy       16886100                       # Energy for read commands per rank (pJ) (Joule)
system.mem_ctrls.dram.rank0.writeEnergy          5220                       # Energy for write commands per rank (pJ) (Joule)
system.mem_ctrls.dram.rank0.refreshEnergy 245856000.000000                       # Energy for refresh commands per rank (pJ) (Joule)
system.mem_ctrls.dram.rank0.actBackEnergy    912688560                       # Energy for active background per rank (pJ) (Joule)
system.mem_ctrls.dram.rank0.preBackEnergy    428665920                       # Energy for precharge background per rank (pJ) (Joule)
system.mem_ctrls.dram.rank0.actPowerDownEnergy            0                       # Energy for active power-down per rank (pJ) (Joule)
system.mem_ctrls.dram.rank0.prePowerDownEnergy            0                       # Energy for precharge power-down per rank (pJ) (Joule)
system.mem_ctrls.dram.rank0.selfRefreshEnergy            0                       # Energy for self refresh per rank (pJ) (Joule)
system.mem_ctrls.dram.rank0.totalEnergy    1613147940                       # Total energy per rank (pJ) (Joule)
system.mem_ctrls.dram.rank0.averagePower   517.394865                       # Core power per rank (mW) (Watt)
system.mem_ctrls.dram.rank0.totalIdleTime            0                       # Total Idle time Per DRAM Rank (Tick)
system.mem_ctrls.dram.rank0.pwrStateTime::IDLE   1105650250                       # Time in different power states (Tick)
system.mem_ctrls.dram.rank0.pwrStateTime::REF    104000000                       # Time in different power states (Tick)
system.mem_ctrls.dram.rank0.pwrStateTime::SREF            0                       # Time in different power states (Tick)
system.mem_ctrls.dram.rank0.pwrStateTime::PRE_PDN            0                       # Time in different power states (Tick)
system.mem_ctrls.dram.rank0.pwrStateTime::ACT   1908177250                       # Time in different power states (Tick)
system.mem_ctrls.dram.rank0.pwrStateTime::ACT_PDN            0                       # Time in different power states (Tick)
system.mem_ctrls.dram.rank1.actEnergy         3441480                       # Energy for activate commands per rank (pJ) (Joule)
system.mem_ctrls.dram.rank1.preEnergy         1814010                       # Energy for precharge commands per rank (pJ) (Joule)
system.mem_ctrls.dram.rank1.readEnergy       11552520                       # Energy for read commands per rank (pJ) (Joule)
system.mem_ctrls.dram.rank1.writeEnergy        182700                       # Energy for write commands per rank (pJ) (Joule)
system.mem_ctrls.dram.rank1.refreshEnergy 245856000.000000                       # Energy for refresh commands per rank (pJ) (Joule)
system.mem_ctrls.dram.rank1.actBackEnergy    414338700                       # Energy for active background per rank (pJ) (Joule)
system.mem_ctrls.dram.rank1.preBackEnergy    848328960                       # Energy for precharge background per rank (pJ) (Joule)
system.mem_ctrls.dram.rank1.actPowerDownEnergy            0                       # Energy for active power-down per rank (pJ) (Joule)
system.mem_ctrls.dram.rank1.prePowerDownEnergy            0                       # Energy for precharge power-down per rank (pJ) (Joule)
system.mem_ctrls.dram.rank1.selfRefreshEnergy            0                       # Energy for self refresh per rank (pJ) (Joule)
system.mem_ctrls.dram.rank1.totalEnergy    1525514370                       # Total energy per rank (pJ) (Joule)
system.mem_ctrls.dram.rank1.averagePower   489.287611                       # Core power per rank (mW) (Watt)
system.mem_ctrls.dram.rank1.totalIdleTime            0                       # Total Idle time Per DRAM Rank (Tick)
system.mem_ctrls.dram.rank1.pwrStateTime::IDLE   2201279500                       # Time in different power states (Tick)
system.mem_ctrls.dram.rank1.pwrStateTime::REF    104000000                       # Time in different power states (Tick)
system.mem_ctrls.dram.rank1.pwrStateTime::SREF            0                       # Time in different power states (Tick)
system.mem_ctrls.dram.rank1.pwrStateTime::PRE_PDN            0                       # Time in different power states (Tick)
system.mem_ctrls.dram.rank1.pwrStateTime::ACT    812548000                       # Time in different power states (Tick)
system.mem_ctrls.dram.rank1.pwrStateTime::ACT_PDN            0                       # Time in different power states (Tick)
system.mem_ctrls.power_state.pwrStateResidencyTicks::UNDEFINED   3117827500                       # Cumulative time (in ticks) in various power states (Tick)
system.membus.transDist::ReadResp                2657                       # Transaction distribution (Count)
system.membus.transDist::WritebackDirty            67                       # Transaction distribution (Count)
system.membus.transDist::CleanEvict               204                       # Transaction distribution (Count)
system.membus.transDist::ReadExReq               1329                       # Transaction distribution (Count)
system.membus.transDist::ReadExResp              1329                       # Transaction distribution (Count)
system.membus.transDist::ReadSharedReq           2657                       # Transaction distribution (Count)
system.membus.pktCount_system.l2.mem_side_port::system.mem_ctrls.port         8243                       # Packet count per connected requestor and responder (Count)
system.membus.pktCount_system.l2.mem_side_port::total         8243                       # Packet count per connected requestor and responder (Count)
system.membus.pktCount::total                    8243                       # Packet count per connected requestor and responder (Count)
system.membus.pktSize_system.l2.mem_side_port::system.mem_ctrls.port       259392                       # Cumulative packet size per connected requestor and responder (Byte)
system.membus.pktSize_system.l2.mem_side_port::total       259392                       # Cumulative packet size per connected requestor and responder (Byte)
system.membus.pktSize::total                   259392                       # Cumulative packet size per connected requestor and responder (Byte)
system.membus.snoops                                0                       # Total snoops (Count)
system.membus.snoopTraffic                          0                       # Total snoop traffic (Byte)
system.membus.snoopFanout::samples               3986                       # Request fanout histogram (Count)
system.membus.snoopFanout::mean                     0                       # Request fanout histogram (Count)
system.membus.snoopFanout::stdev                    0                       # Request fanout histogram (Count)
system.membus.snoopFanout::underflows               0      0.00%      0.00% # Request fanout histogram (Count)
system.membus.snoopFanout::0                     3986    100.00%    100.00% # Request fanout histogram (Count)
system.membus.snoopFanout::1                        0      0.00%    100.00% # Request fanout histogram (Count)
system.membus.snoopFanout::overflows                0      0.00%    100.00% # Request fanout histogram (Count)
system.membus.snoopFanout::min_value                0                       # Request fanout histogram (Count)
system.membus.snoopFanout::max_value                0                       # Request fanout histogram (Count)
system.membus.snoopFanout::total                 3986                       # Request fanout histogram (Count)
system.membus.power_state.pwrStateResidencyTicks::UNDEFINED   3117827500                       # Cumulative time (in ticks) in various power states (Tick)
system.membus.reqLayer2.occupancy             5468500                       # Layer occupancy (ticks) (Tick)
system.membus.reqLayer2.utilization               0.0                       # Layer utilization (Ratio)
system.membus.respLayer1.occupancy           21248500                       # Layer occupancy (ticks) (Tick)
system.membus.respLayer1.utilization              0.0                       # Layer utilization (Ratio)
system.membus.snoop_filter.totRequests           4257                       # Total number of requests made to the snoop filter. (Count)
system.membus.snoop_filter.hitSingleRequests          271                       # Number of requests hitting in the snoop filter with a single holder of the requested data. (Count)
system.membus.snoop_filter.hitMultiRequests            0                       # Number of requests hitting in the snoop filter with multiple (>1) holders of the requested data. (Count)
system.membus.snoop_filter.totSnoops                0                       # Total number of snoops made to the snoop filter. (Count)
system.membus.snoop_filter.hitSingleSnoops            0                       # Number of snoops hitting in the snoop filter with a single holder of the requested data. (Count)
system.membus.snoop_filter.hitMultiSnoops            0                       # Number of snoops hitting in the snoop filter with multiple (>1) holders of the requested data. (Count)
system.tol2bus.transDist::ReadResp              13840                       # Transaction distribution (Count)
system.tol2bus.transDist::WritebackDirty         1959                       # Transaction distribution (Count)
system.tol2bus.transDist::WritebackClean        11599                       # Transaction distribution (Count)
system.tol2bus.transDist::CleanEvict             1094                       # Transaction distribution (Count)
system.tol2bus.transDist::UpgradeReq                2                       # Transaction distribution (Count)
system.tol2bus.transDist::UpgradeResp               2                       # Transaction distribution (Count)
system.tol2bus.transDist::ReadExReq              1472                       # Transaction distribution (Count)
system.tol2bus.transDist::ReadExResp             1472                       # Transaction distribution (Count)
system.tol2bus.transDist::ReadCleanReq          12113                       # Transaction distribution (Count)
system.tol2bus.transDist::ReadSharedReq          1727                       # Transaction distribution (Count)
system.tol2bus.pktCount_system.cpu.icache.mem_side_port::system.l2.cpu_side_port        35824                       # Packet count per connected requestor and responder (Count)
system.tol2bus.pktCount_system.cpu.dcache.mem_side_port::system.l2.cpu_side_port         9089                       # Packet count per connected requestor and responder (Count)
system.tol2bus.pktCount::total                  44913                       # Packet count per connected requestor and responder (Count)
system.tol2bus.pktSize_system.cpu.icache.mem_side_port::system.l2.cpu_side_port      1517504                       # Cumulative packet size per connected requestor and responder (Byte)
system.tol2bus.pktSize_system.cpu.dcache.mem_side_port::system.l2.cpu_side_port       325824                       # Cumulative packet size per connected requestor and responder (Byte)
system.tol2bus.pktSize::total                 1843328                       # Cumulative packet size per connected requestor and responder (Byte)
system.tol2bus.snoops                             367                       # Total snoops (Count)
system.tol2bus.snoopTraffic                      4352                       # Total snoop traffic (Byte)
system.tol2bus.snoopFanout::samples             15680                       # Request fanout histogram (Count)
system.tol2bus.snoopFanout::mean             0.006505                       # Request fanout histogram (Count)
system.tol2bus.snoopFanout::stdev            0.080394                       # Request fanout histogram (Count)
system.tol2bus.snoopFanout::underflows              0      0.00%      0.00% # Request fanout histogram (Count)
system.tol2bus.snoopFanout::0                   15578     99.35%     99.35% # Request fanout histogram (Count)
system.tol2bus.snoopFanout::1                     102      0.65%    100.00% # Request fanout histogram (Count)
system.tol2bus.snoopFanout::2                       0      0.00%    100.00% # Request fanout histogram (Count)
system.tol2bus.snoopFanout::3                       0      0.00%    100.00% # Request fanout histogram (Count)
system.tol2bus.snoopFanout::4                       0      0.00%    100.00% # Request fanout histogram (Count)
system.tol2bus.snoopFanout::overflows               0      0.00%    100.00% # Request fanout histogram (Count)
system.tol2bus.snoopFanout::min_value               0                       # Request fanout histogram (Count)
system.tol2bus.snoopFanout::max_value               1                       # Request fanout histogram (Count)
system.tol2bus.snoopFanout::total               15680                       # Request fanout histogram (Count)
system.tol2bus.power_state.pwrStateResidencyTicks::UNDEFINED   3117827500                       # Cumulative time (in ticks) in various power states (Tick)
system.tol2bus.reqLayer0.occupancy           28291000                       # Layer occupancy (ticks) (Tick)
system.tol2bus.reqLayer0.utilization              0.0                       # Layer utilization (Ratio)
system.tol2bus.respLayer0.occupancy          18169999                       # Layer occupancy (ticks) (Tick)
system.tol2bus.respLayer0.utilization             0.0                       # Layer utilization (Ratio)
system.tol2bus.respLayer1.occupancy           4803991                       # Layer occupancy (ticks) (Tick)
system.tol2bus.respLayer1.utilization             0.0                       # Layer utilization (Ratio)
system.tol2bus.snoop_filter.totRequests         29600                       # Total number of requests made to the snoop filter. (Count)
system.tol2bus.snoop_filter.hitSingleRequests        14288                       # Number of requests hitting in the snoop filter with a single holder of the requested data. (Count)
system.tol2bus.snoop_filter.hitMultiRequests            3                       # Number of requests hitting in the snoop filter with multiple (>1) holders of the requested data. (Count)
system.tol2bus.snoop_filter.totSnoops              97                       # Total number of snoops made to the snoop filter. (Count)
system.tol2bus.snoop_filter.hitSingleSnoops           97                       # Number of snoops hitting in the snoop filter with a single holder of the requested data. (Count)
system.tol2bus.snoop_filter.hitMultiSnoops            0                       # Number of snoops hitting in the snoop filter with multiple (>1) holders of the requested data. (Count)
system.voltage_domain.voltage                       1                       # Voltage in Volts (Volt)
system.workload.inst.arm                            0                       # number of arm instructions executed (Count)
system.workload.inst.quiesce                        0                       # number of quiesce instructions executed (Count)

---------- End Simulation Statistics   ----------
