
---------- Begin Simulation Statistics ----------
simSeconds                                   0.003634                       # Number of seconds simulated (Second)
simTicks                                   3633998000                       # Number of ticks simulated (Tick)
finalTick                                  3633998000                       # Number of ticks from beginning of simulation (restored from checkpoints and never reset) (Tick)
simFreq                                  1000000000000                       # The number of ticks per simulated second ((Tick/Second))
hostSeconds                                     49.37                       # Real time elapsed on the host (Second)
hostTickRate                                 73610860                       # The number of ticks simulated per host second (ticks/s) ((Tick/Second))
hostMemory                                     700756                       # Number of bytes of host memory used (Byte)
simInsts                                      9925623                       # Number of instructions simulated (Count)
simOps                                       19667056                       # Number of ops (including micro ops) simulated (Count)
hostInstRate                                   201055                       # Simulator instruction rate (inst/s) ((Count/Second))
hostOpRate                                     398378                       # Simulator op (including micro ops) rate (op/s) ((Count/Second))
system.clk_domain.clock                          1000                       # Clock period in ticks (Tick)
system.cpu.numCycles                          7267997                       # Number of cpu cycles simulated (Cycle)
system.cpu.numWorkItemsStarted                      0                       # Number of work items this cpu started (Count)
system.cpu.numWorkItemsCompleted                    0                       # Number of work items this cpu completed (Count)
system.cpu.instsAdded                        21310270                       # Number of instructions added to the IQ (excludes non-spec) (Count)
system.cpu.nonSpecInstsAdded                      976                       # Number of non-speculative instructions added to the IQ (Count)
system.cpu.instsIssued                       20797045                       # Number of instructions issued (Count)
system.cpu.squashedInstsIssued                  19074                       # Number of squashed instructions issued (Count)
system.cpu.squashedInstsExamined              1644168                       # Number of squashed instructions iterated over during squash; mainly for profiling (Count)
system.cpu.squashedOperandsExamined           2293632                       # Number of squashed operands that are examined and possibly removed from graph (Count)
system.cpu.squashedNonSpecRemoved                 792                       # Number of squashed non-spec instructions that were removed (Count)
system.cpu.numIssuedDist::samples             7048813                       # Number of insts issued each cycle (Count)
system.cpu.numIssuedDist::mean               2.950432                       # Number of insts issued each cycle (Count)
system.cpu.numIssuedDist::stdev              2.554246                       # Number of insts issued each cycle (Count)
system.cpu.numIssuedDist::underflows                0      0.00%      0.00% # Number of insts issued each cycle (Count)
system.cpu.numIssuedDist::0                   2119213     30.06%     30.06% # Number of insts issued each cycle (Count)
system.cpu.numIssuedDist::1                    517316      7.34%     37.40% # Number of insts issued each cycle (Count)
system.cpu.numIssuedDist::2                    637247      9.04%     46.44% # Number of insts issued each cycle (Count)
system.cpu.numIssuedDist::3                    765816     10.86%     57.31% # Number of insts issued each cycle (Count)
system.cpu.numIssuedDist::4                    801166     11.37%     68.67% # Number of insts issued each cycle (Count)
system.cpu.numIssuedDist::5                    638295      9.06%     77.73% # Number of insts issued each cycle (Count)
system.cpu.numIssuedDist::6                    922556     13.09%     90.82% # Number of insts issued each cycle (Count)
system.cpu.numIssuedDist::7                    401320      5.69%     96.51% # Number of insts issued each cycle (Count)
system.cpu.numIssuedDist::8                    245884      3.49%    100.00% # Number of insts issued each cycle (Count)
system.cpu.numIssuedDist::overflows                 0      0.00%    100.00% # Number of insts issued each cycle (Count)
system.cpu.numIssuedDist::min_value                 0                       # Number of insts issued each cycle (Count)
system.cpu.numIssuedDist::max_value                 8                       # Number of insts issued each cycle (Count)
system.cpu.numIssuedDist::total               7048813                       # Number of insts issued each cycle (Count)
system.cpu.statFuBusy::No_OpClass                   0      0.00%      0.00% # attempts to use FU when none available (Count)
system.cpu.statFuBusy::IntAlu                  534845     83.82%     83.82% # attempts to use FU when none available (Count)
system.cpu.statFuBusy::IntMult                      0      0.00%     83.82% # attempts to use FU when none available (Count)
system.cpu.statFuBusy::IntDiv                       0      0.00%     83.82% # attempts to use FU when none available (Count)
system.cpu.statFuBusy::FloatAdd                     0      0.00%     83.82% # attempts to use FU when none available (Count)
system.cpu.statFuBusy::FloatCmp                     0      0.00%     83.82% # attempts to use FU when none available (Count)
system.cpu.statFuBusy::FloatCvt                     0      0.00%     83.82% # attempts to use FU when none available (Count)
system.cpu.statFuBusy::FloatMult                    0      0.00%     83.82% # attempts to use FU when none available (Count)
system.cpu.statFuBusy::FloatMultAcc                 0      0.00%     83.82% # attempts to use FU when none available (Count)
system.cpu.statFuBusy::FloatDiv                     0      0.00%     83.82% # attempts to use FU when none available (Count)
system.cpu.statFuBusy::FloatMisc                    0      0.00%     83.82% # attempts to use FU when none available (Count)
system.cpu.statFuBusy::FloatSqrt                    0      0.00%     83.82% # attempts to use FU when none available (Count)
system.cpu.statFuBusy::SimdAdd                      0      0.00%     83.82% # attempts to use FU when none available (Count)
system.cpu.statFuBusy::SimdAddAcc                   0      0.00%     83.82% # attempts to use FU when none available (Count)
system.cpu.statFuBusy::SimdAlu                      0      0.00%     83.82% # attempts to use FU when none available (Count)
system.cpu.statFuBusy::SimdCmp                      0      0.00%     83.82% # attempts to use FU when none available (Count)
system.cpu.statFuBusy::SimdCvt                      0      0.00%     83.82% # attempts to use FU when none available (Count)
system.cpu.statFuBusy::SimdMisc                     0      0.00%     83.82% # attempts to use FU when none available (Count)
system.cpu.statFuBusy::SimdMult                     0      0.00%     83.82% # attempts to use FU when none available (Count)
system.cpu.statFuBusy::SimdMultAcc                  0      0.00%     83.82% # attempts to use FU when none available (Count)
system.cpu.statFuBusy::SimdShift                    0      0.00%     83.82% # attempts to use FU when none available (Count)
system.cpu.statFuBusy::SimdShiftAcc                 0      0.00%     83.82% # attempts to use FU when none available (Count)
system.cpu.statFuBusy::SimdDiv                      0      0.00%     83.82% # attempts to use FU when none available (Count)
system.cpu.statFuBusy::SimdSqrt                     0      0.00%     83.82% # attempts to use FU when none available (Count)
system.cpu.statFuBusy::SimdFloatAdd                 0      0.00%     83.82% # attempts to use FU when none available (Count)
system.cpu.statFuBusy::SimdFloatAlu                 0      0.00%     83.82% # attempts to use FU when none available (Count)
system.cpu.statFuBusy::SimdFloatCmp                 0      0.00%     83.82% # attempts to use FU when none available (Count)
system.cpu.statFuBusy::SimdFloatCvt                 0      0.00%     83.82% # attempts to use FU when none available (Count)
system.cpu.statFuBusy::SimdFloatDiv                 0      0.00%     83.82% # attempts to use FU when none available (Count)
system.cpu.statFuBusy::SimdFloatMisc                0      0.00%     83.82% # attempts to use FU when none available (Count)
system.cpu.statFuBusy::SimdFloatMult                0      0.00%     83.82% # attempts to use FU when none available (Count)
system.cpu.statFuBusy::SimdFloatMultAcc             0      0.00%     83.82% # attempts to use FU when none available (Count)
system.cpu.statFuBusy::SimdFloatSqrt                0      0.00%     83.82% # attempts to use FU when none available (Count)
system.cpu.statFuBusy::SimdReduceAdd                0      0.00%     83.82% # attempts to use FU when none available (Count)
system.cpu.statFuBusy::SimdReduceAlu                0      0.00%     83.82% # attempts to use FU when none available (Count)
system.cpu.statFuBusy::SimdReduceCmp                0      0.00%     83.82% # attempts to use FU when none available (Count)
system.cpu.statFuBusy::SimdFloatReduceAdd            0      0.00%     83.82% # attempts to use FU when none available (Count)
system.cpu.statFuBusy::SimdFloatReduceCmp            0      0.00%     83.82% # attempts to use FU when none available (Count)
system.cpu.statFuBusy::SimdAes                      0      0.00%     83.82% # attempts to use FU when none available (Count)
system.cpu.statFuBusy::SimdAesMix                   0      0.00%     83.82% # attempts to use FU when none available (Count)
system.cpu.statFuBusy::SimdSha1Hash                 0      0.00%     83.82% # attempts to use FU when none available (Count)
system.cpu.statFuBusy::SimdSha1Hash2                0      0.00%     83.82% # attempts to use FU when none available (Count)
system.cpu.statFuBusy::SimdSha256Hash               0      0.00%     83.82% # attempts to use FU when none available (Count)
system.cpu.statFuBusy::SimdSha256Hash2              0      0.00%     83.82% # attempts to use FU when none available (Count)
system.cpu.statFuBusy::SimdShaSigma2                0      0.00%     83.82% # attempts to use FU when none available (Count)
system.cpu.statFuBusy::SimdShaSigma3                0      0.00%     83.82% # attempts to use FU when none available (Count)
system.cpu.statFuBusy::SimdPredAlu                  0      0.00%     83.82% # attempts to use FU when none available (Count)
system.cpu.statFuBusy::MemRead                  56002      8.78%     92.60% # attempts to use FU when none available (Count)
system.cpu.statFuBusy::MemWrite                 47240      7.40%    100.00% # attempts to use FU when none available (Count)
system.cpu.statFuBusy::FloatMemRead                 0      0.00%    100.00% # attempts to use FU when none available (Count)
system.cpu.statFuBusy::FloatMemWrite                0      0.00%    100.00% # attempts to use FU when none available (Count)
system.cpu.statFuBusy::IprAccess                    0      0.00%    100.00% # attempts to use FU when none available (Count)
system.cpu.statFuBusy::InstPrefetch                 0      0.00%    100.00% # attempts to use FU when none available (Count)
system.cpu.statIssuedInstType_0::No_OpClass         7307      0.04%      0.04% # Number of instructions issued per FU type, per thread (Count)
system.cpu.statIssuedInstType_0::IntAlu      16067723     77.26%     77.29% # Number of instructions issued per FU type, per thread (Count)
system.cpu.statIssuedInstType_0::IntMult        98627      0.47%     77.77% # Number of instructions issued per FU type, per thread (Count)
system.cpu.statIssuedInstType_0::IntDiv         74900      0.36%     78.13% # Number of instructions issued per FU type, per thread (Count)
system.cpu.statIssuedInstType_0::FloatAdd            0      0.00%     78.13% # Number of instructions issued per FU type, per thread (Count)
system.cpu.statIssuedInstType_0::FloatCmp            0      0.00%     78.13% # Number of instructions issued per FU type, per thread (Count)
system.cpu.statIssuedInstType_0::FloatCvt            0      0.00%     78.13% # Number of instructions issued per FU type, per thread (Count)
system.cpu.statIssuedInstType_0::FloatMult            0      0.00%     78.13% # Number of instructions issued per FU type, per thread (Count)
system.cpu.statIssuedInstType_0::FloatMultAcc            0      0.00%     78.13% # Number of instructions issued per FU type, per thread (Count)
system.cpu.statIssuedInstType_0::FloatDiv            0      0.00%     78.13% # Number of instructions issued per FU type, per thread (Count)
system.cpu.statIssuedInstType_0::FloatMisc            0      0.00%     78.13% # Number of instructions issued per FU type, per thread (Count)
system.cpu.statIssuedInstType_0::FloatSqrt            0      0.00%     78.13% # Number of instructions issued per FU type, per thread (Count)
system.cpu.statIssuedInstType_0::SimdAdd            0      0.00%     78.13% # Number of instructions issued per FU type, per thread (Count)
system.cpu.statIssuedInstType_0::SimdAddAcc            0      0.00%     78.13% # Number of instructions issued per FU type, per thread (Count)
system.cpu.statIssuedInstType_0::SimdAlu            0      0.00%     78.13% # Number of instructions issued per FU type, per thread (Count)
system.cpu.statIssuedInstType_0::SimdCmp            0      0.00%     78.13% # Number of instructions issued per FU type, per thread (Count)
system.cpu.statIssuedInstType_0::SimdCvt            0      0.00%     78.13% # Number of instructions issued per FU type, per thread (Count)
system.cpu.statIssuedInstType_0::SimdMisc            0      0.00%     78.13% # Number of instructions issued per FU type, per thread (Count)
system.cpu.statIssuedInstType_0::SimdMult            0      0.00%     78.13% # Number of instructions issued per FU type, per thread (Count)
system.cpu.statIssuedInstType_0::SimdMultAcc            0      0.00%     78.13% # Number of instructions issued per FU type, per thread (Count)
system.cpu.statIssuedInstType_0::SimdShift            0      0.00%     78.13% # Number of instructions issued per FU type, per thread (Count)
system.cpu.statIssuedInstType_0::SimdShiftAcc            0      0.00%     78.13% # Number of instructions issued per FU type, per thread (Count)
system.cpu.statIssuedInstType_0::SimdDiv            0      0.00%     78.13% # Number of instructions issued per FU type, per thread (Count)
system.cpu.statIssuedInstType_0::SimdSqrt            0      0.00%     78.13% # Number of instructions issued per FU type, per thread (Count)
system.cpu.statIssuedInstType_0::SimdFloatAdd            0      0.00%     78.13% # Number of instructions issued per FU type, per thread (Count)
system.cpu.statIssuedInstType_0::SimdFloatAlu            0      0.00%     78.13% # Number of instructions issued per FU type, per thread (Count)
system.cpu.statIssuedInstType_0::SimdFloatCmp            0      0.00%     78.13% # Number of instructions issued per FU type, per thread (Count)
system.cpu.statIssuedInstType_0::SimdFloatCvt            0      0.00%     78.13% # Number of instructions issued per FU type, per thread (Count)
system.cpu.statIssuedInstType_0::SimdFloatDiv            0      0.00%     78.13% # Number of instructions issued per FU type, per thread (Count)
system.cpu.statIssuedInstType_0::SimdFloatMisc            0      0.00%     78.13% # Number of instructions issued per FU type, per thread (Count)
system.cpu.statIssuedInstType_0::SimdFloatMult            0      0.00%     78.13% # Number of instructions issued per FU type, per thread (Count)
system.cpu.statIssuedInstType_0::SimdFloatMultAcc            0      0.00%     78.13% # Number of instructions issued per FU type, per thread (Count)
system.cpu.statIssuedInstType_0::SimdFloatSqrt            0      0.00%     78.13% # Number of instructions issued per FU type, per thread (Count)
system.cpu.statIssuedInstType_0::SimdReduceAdd            0      0.00%     78.13% # Number of instructions issued per FU type, per thread (Count)
system.cpu.statIssuedInstType_0::SimdReduceAlu            0      0.00%     78.13% # Number of instructions issued per FU type, per thread (Count)
system.cpu.statIssuedInstType_0::SimdReduceCmp            0      0.00%     78.13% # Number of instructions issued per FU type, per thread (Count)
system.cpu.statIssuedInstType_0::SimdFloatReduceAdd            0      0.00%     78.13% # Number of instructions issued per FU type, per thread (Count)
system.cpu.statIssuedInstType_0::SimdFloatReduceCmp            0      0.00%     78.13% # Number of instructions issued per FU type, per thread (Count)
system.cpu.statIssuedInstType_0::SimdAes            0      0.00%     78.13% # Number of instructions issued per FU type, per thread (Count)
system.cpu.statIssuedInstType_0::SimdAesMix            0      0.00%     78.13% # Number of instructions issued per FU type, per thread (Count)
system.cpu.statIssuedInstType_0::SimdSha1Hash            0      0.00%     78.13% # Number of instructions issued per FU type, per thread (Count)
system.cpu.statIssuedInstType_0::SimdSha1Hash2            0      0.00%     78.13% # Number of instructions issued per FU type, per thread (Count)
system.cpu.statIssuedInstType_0::SimdSha256Hash            0      0.00%     78.13% # Number of instructions issued per FU type, per thread (Count)
system.cpu.statIssuedInstType_0::SimdSha256Hash2            0      0.00%     78.13% # Number of instructions issued per FU type, per thread (Count)
system.cpu.statIssuedInstType_0::SimdShaSigma2            0      0.00%     78.13% # Number of instructions issued per FU type, per thread (Count)
system.cpu.statIssuedInstType_0::SimdShaSigma3            0      0.00%     78.13% # Number of instructions issued per FU type, per thread (Count)
system.cpu.statIssuedInstType_0::SimdPredAlu            0      0.00%     78.13% # Number of instructions issued per FU type, per thread (Count)
system.cpu.statIssuedInstType_0::MemRead      2965110     14.26%     92.39% # Number of instructions issued per FU type, per thread (Count)
system.cpu.statIssuedInstType_0::MemWrite      1583378      7.61%    100.00% # Number of instructions issued per FU type, per thread (Count)
system.cpu.statIssuedInstType_0::FloatMemRead            0      0.00%    100.00% # Number of instructions issued per FU type, per thread (Count)
system.cpu.statIssuedInstType_0::FloatMemWrite            0      0.00%    100.00% # Number of instructions issued per FU type, per thread (Count)
system.cpu.statIssuedInstType_0::IprAccess            0      0.00%    100.00% # Number of instructions issued per FU type, per thread (Count)
system.cpu.statIssuedInstType_0::InstPrefetch            0      0.00%    100.00% # Number of instructions issued per FU type, per thread (Count)
system.cpu.statIssuedInstType_0::total       20797045                       # Number of instructions issued per FU type, per thread (Count)
system.cpu.issueRate                         2.861455                       # Inst issue rate ((Count/Cycle))
system.cpu.fuBusy                              638087                       # FU busy when requested (Count)
system.cpu.fuBusyRate                        0.030682                       # FU busy rate (busy events/executed inst) ((Count/Count))
system.cpu.intInstQueueReads                 49300064                       # Number of integer instruction queue reads (Count)
system.cpu.intInstQueueWrites                22957687                       # Number of integer instruction queue writes (Count)
system.cpu.intInstQueueWakeupAccesses        20645201                       # Number of integer instruction queue wakeup accesses (Count)
system.cpu.fpInstQueueReads                         0                       # Number of floating instruction queue reads (Count)
system.cpu.fpInstQueueWrites                        0                       # Number of floating instruction queue writes (Count)
system.cpu.fpInstQueueWakeupAccesses                0                       # Number of floating instruction queue wakeup accesses (Count)
system.cpu.vecInstQueueReads                        0                       # Number of vector instruction queue reads (Count)
system.cpu.vecInstQueueWrites                       0                       # Number of vector instruction queue writes (Count)
system.cpu.vecInstQueueWakeupAccesses               0                       # Number of vector instruction queue wakeup accesses (Count)
system.cpu.intAluAccesses                    21427825                       # Number of integer alu accesses (Count)
system.cpu.fpAluAccesses                            0                       # Number of floating point alu accesses (Count)
system.cpu.vecAluAccesses                           0                       # Number of vector alu accesses (Count)
system.cpu.idleCycles                               0                       # Number of cycles IEW is idle (Cycle)
system.cpu.squashCycles                         45071                       # Number of cycles IEW is squashing (Cycle)
system.cpu.blockCycles                         218721                       # Number of cycles IEW is blocking (Cycle)
system.cpu.unblockCycles                       141758                       # Number of cycles IEW is unblocking (Cycle)
system.cpu.dispatchedInsts                   21311246                       # Number of instructions dispatched to IQ (Count)
system.cpu.dispSquashedInsts                     2172                       # Number of squashed instructions skipped by dispatch (Count)
system.cpu.dispLoadInsts                      3018854                       # Number of dispatched load instructions (Count)
system.cpu.dispStoreInsts                     1612593                       # Number of dispatched store instructions (Count)
system.cpu.dispNonSpecInsts                       341                       # Number of dispatched non-speculative instructions (Count)
system.cpu.iqFullEvents                           541                       # Number of times the IQ has become full, causing a stall (Count)
system.cpu.lsqFullEvents                       140849                       # Number of times the LSQ has become full, causing a stall (Count)
system.cpu.memOrderViolationEvents               2329                       # Number of memory order violations (Count)
system.cpu.predictedTakenIncorrect              23376                       # Number of branches that were predicted taken incorrectly (Count)
system.cpu.predictedNotTakenIncorrect           23337                       # Number of branches that were predicted not taken incorrectly (Count)
system.cpu.branchMispredicts                    46713                       # Number of branch mispredicts detected at execute (Count)
system.cpu.numInsts                          20697827                       # Number of executed instructions (Count)
system.cpu.numLoadInsts                       2942623                       # Number of load instructions executed (Count)
system.cpu.numSquashedInsts                     99218                       # Number of squashed instructions skipped in execute (Count)
system.cpu.numSwp                                   0                       # Number of swp insts executed (Count)
system.cpu.numNop                                   0                       # Number of nop insts executed (Count)
system.cpu.numRefs                            4516673                       # Number of memory reference insts executed (Count)
system.cpu.numBranches                        2383336                       # Number of branches executed (Count)
system.cpu.numStoreInsts                      1574050                       # Number of stores executed (Count)
system.cpu.numRate                           2.847803                       # Inst execution rate ((Count/Cycle))
system.cpu.instsToCommit                     20672014                       # Cumulative count of insts sent to commit (Count)
system.cpu.writebackCount                    20645201                       # Cumulative count of insts written-back (Count)
system.cpu.producerInst                      15447302                       # Number of instructions producing a value (Count)
system.cpu.consumerInst                      26115660                       # Number of instructions consuming a value (Count)
system.cpu.wbRate                            2.840563                       # Insts written-back per cycle ((Count/Cycle))
system.cpu.wbFanout                          0.591496                       # Average fanout of values written-back ((Count/Count))
system.cpu.timesIdled                            2344                       # Number of times that the entire CPU went into an idle state and unscheduled itself (Count)
system.cpu.idleCycles                          219184                       # Total number of cycles that the CPU has spent unscheduled due to idling (Cycle)
system.cpu.committedInsts                     9925623                       # Number of Instructions Simulated (Count)
system.cpu.committedOps                      19667056                       # Number of Ops (including micro ops) Simulated (Count)
system.cpu.cpi                               0.732246                       # CPI: Cycles Per Instruction ((Cycle/Count))
system.cpu.totalCpi                          0.732246                       # CPI: Total CPI of All Threads ((Cycle/Count))
system.cpu.ipc                               1.365661                       # IPC: Instructions Per Cycle ((Count/Cycle))
system.cpu.totalIpc                          1.365661                       # IPC: Total IPC of All Threads ((Count/Cycle))
system.cpu.intRegfileReads                   30297567                       # Number of integer regfile reads (Count)
system.cpu.intRegfileWrites                  16932283                       # Number of integer regfile writes (Count)
system.cpu.ccRegfileReads                    13073561                       # number of cc regfile reads (Count)
system.cpu.ccRegfileWrites                    6986203                       # number of cc regfile writes (Count)
system.cpu.miscRegfileReads                   8877214                       # number of misc regfile reads (Count)
system.cpu.miscRegfileWrites                        6                       # number of misc regfile writes (Count)
system.cpu.MemDepUnit__0.insertedLoads        3018854                       # Number of loads inserted to the mem dependence unit. (Count)
system.cpu.MemDepUnit__0.insertedStores       1612593                       # Number of stores inserted to the mem dependence unit. (Count)
system.cpu.MemDepUnit__0.conflictingLoads       404073                       # Number of conflicting loads. (Count)
system.cpu.MemDepUnit__0.conflictingStores       150404                       # Number of conflicting stores. (Count)
system.cpu.MemDepUnit__1.insertedLoads              0                       # Number of loads inserted to the mem dependence unit. (Count)
system.cpu.MemDepUnit__1.insertedStores             0                       # Number of stores inserted to the mem dependence unit. (Count)
system.cpu.MemDepUnit__1.conflictingLoads            0                       # Number of conflicting loads. (Count)
system.cpu.MemDepUnit__1.conflictingStores            0                       # Number of conflicting stores. (Count)
system.cpu.MemDepUnit__2.insertedLoads              0                       # Number of loads inserted to the mem dependence unit. (Count)
system.cpu.MemDepUnit__2.insertedStores             0                       # Number of stores inserted to the mem dependence unit. (Count)
system.cpu.MemDepUnit__2.conflictingLoads            0                       # Number of conflicting loads. (Count)
system.cpu.MemDepUnit__2.conflictingStores            0                       # Number of conflicting stores. (Count)
system.cpu.MemDepUnit__3.insertedLoads              0                       # Number of loads inserted to the mem dependence unit. (Count)
system.cpu.MemDepUnit__3.insertedStores             0                       # Number of stores inserted to the mem dependence unit. (Count)
system.cpu.MemDepUnit__3.conflictingLoads            0                       # Number of conflicting loads. (Count)
system.cpu.MemDepUnit__3.conflictingStores            0                       # Number of conflicting stores. (Count)
system.cpu.branchPred.lookups                 2599598                       # Number of BP lookups (Count)
system.cpu.branchPred.condPredicted           1994699                       # Number of conditional branches predicted (Count)
system.cpu.branchPred.condIncorrect             50525                       # Number of conditional branches incorrect (Count)
system.cpu.branchPred.BTBLookups              1042603                       # Number of BTB lookups (Count)
system.cpu.branchPred.BTBHits                 1029882                       # Number of BTB hits (Count)
system.cpu.branchPred.BTBHitRatio            0.987799                       # BTB Hit Ratio (Ratio)
system.cpu.branchPred.RASUsed                  222892                       # Number of times the RAS was used to get a target. (Count)
system.cpu.branchPred.RASIncorrect                 37                       # Number of incorrect RAS predictions. (Count)
system.cpu.branchPred.indirectLookups           40652                       # Number of indirect predictor lookups. (Count)
system.cpu.branchPred.indirectHits              35127                       # Number of indirect target hits. (Count)
system.cpu.branchPred.indirectMisses             5525                       # Number of indirect misses. (Count)
system.cpu.branchPred.indirectMispredicted         7100                       # Number of mispredicted indirect branches. (Count)
system.cpu.branchPred.tage.longestMatchProviderCorrect      1063384                       # Number of times TAGE Longest Match is the provider and the prediction is correct (Count)
system.cpu.branchPred.tage.altMatchProviderCorrect         5597                       # Number of times TAGE Alt Match is the provider and the prediction is correct (Count)
system.cpu.branchPred.tage.bimodalAltMatchProviderCorrect          942                       # Number of times TAGE Alt Match is the bimodal and it is the provider and the prediction is correct (Count)
system.cpu.branchPred.tage.bimodalProviderCorrect       665449                       # Number of times there are no hits on the TAGE tables and the bimodal prediction is correct (Count)
system.cpu.branchPred.tage.longestMatchProviderWrong        24580                       # Number of times TAGE Longest Match is the provider and the prediction is wrong (Count)
system.cpu.branchPred.tage.altMatchProviderWrong         3042                       # Number of times TAGE Alt Match is the provider and the prediction is wrong (Count)
system.cpu.branchPred.tage.bimodalAltMatchProviderWrong          404                       # Number of times TAGE Alt Match is the bimodal and it is the provider and the prediction is wrong (Count)
system.cpu.branchPred.tage.bimodalProviderWrong         4239                       # Number of times there are no hits on the TAGE tables and the bimodal prediction is wrong (Count)
system.cpu.branchPred.tage.altMatchProviderWouldHaveHit         9317                       # Number of times TAGE Longest Match is the provider, the prediction is wrong and Alt Match prediction was correct (Count)
system.cpu.branchPred.tage.longestMatchProviderWouldHaveHit         2235                       # Number of times TAGE Alt Match is the provider, the prediction is wrong and Longest Match prediction was correct (Count)
system.cpu.branchPred.tage.longestMatchProvider::0            0                       # TAGE provider for longest match (Count)
system.cpu.branchPred.tage.longestMatchProvider::1       173865                       # TAGE provider for longest match (Count)
system.cpu.branchPred.tage.longestMatchProvider::2       187172                       # TAGE provider for longest match (Count)
system.cpu.branchPred.tage.longestMatchProvider::3       243390                       # TAGE provider for longest match (Count)
system.cpu.branchPred.tage.longestMatchProvider::4       177493                       # TAGE provider for longest match (Count)
system.cpu.branchPred.tage.longestMatchProvider::5       134502                       # TAGE provider for longest match (Count)
system.cpu.branchPred.tage.longestMatchProvider::6        89496                       # TAGE provider for longest match (Count)
system.cpu.branchPred.tage.longestMatchProvider::7        43559                       # TAGE provider for longest match (Count)
system.cpu.branchPred.tage.longestMatchProvider::8        23351                       # TAGE provider for longest match (Count)
system.cpu.branchPred.tage.longestMatchProvider::9        13428                       # TAGE provider for longest match (Count)
system.cpu.branchPred.tage.longestMatchProvider::10         5554                       # TAGE provider for longest match (Count)
system.cpu.branchPred.tage.longestMatchProvider::11         3146                       # TAGE provider for longest match (Count)
system.cpu.branchPred.tage.longestMatchProvider::12         1647                       # TAGE provider for longest match (Count)
system.cpu.branchPred.tage.altMatchProvider::0       364172                       # TAGE provider for alt match (Count)
system.cpu.branchPred.tage.altMatchProvider::1       157745                       # TAGE provider for alt match (Count)
system.cpu.branchPred.tage.altMatchProvider::2       162862                       # TAGE provider for alt match (Count)
system.cpu.branchPred.tage.altMatchProvider::3       156963                       # TAGE provider for alt match (Count)
system.cpu.branchPred.tage.altMatchProvider::4       121607                       # TAGE provider for alt match (Count)
system.cpu.branchPred.tage.altMatchProvider::5        70537                       # TAGE provider for alt match (Count)
system.cpu.branchPred.tage.altMatchProvider::6        34867                       # TAGE provider for alt match (Count)
system.cpu.branchPred.tage.altMatchProvider::7        13922                       # TAGE provider for alt match (Count)
system.cpu.branchPred.tage.altMatchProvider::8         8827                       # TAGE provider for alt match (Count)
system.cpu.branchPred.tage.altMatchProvider::9         3244                       # TAGE provider for alt match (Count)
system.cpu.branchPred.tage.altMatchProvider::10         1201                       # TAGE provider for alt match (Count)
system.cpu.branchPred.tage.altMatchProvider::11          656                       # TAGE provider for alt match (Count)
system.cpu.branchPred.tage.altMatchProvider::12            0                       # TAGE provider for alt match (Count)
system.cpu.commit.commitSquashedInsts         1642193                       # The number of squashed insts skipped by commit (Count)
system.cpu.commit.commitNonSpecStalls             184                       # The number of times commit has been forced to stall to communicate backwards (Count)
system.cpu.commit.branchMispredicts             43074                       # The number of times a branch was mispredicted (Count)
system.cpu.commit.numCommittedDist::samples      6819526                       # Number of insts commited each cycle (Count)
system.cpu.commit.numCommittedDist::mean     2.883933                       # Number of insts commited each cycle (Count)
system.cpu.commit.numCommittedDist::stdev     3.115166                       # Number of insts commited each cycle (Count)
system.cpu.commit.numCommittedDist::underflows            0      0.00%      0.00% # Number of insts commited each cycle (Count)
system.cpu.commit.numCommittedDist::0         2290655     33.59%     33.59% # Number of insts commited each cycle (Count)
system.cpu.commit.numCommittedDist::1         1140839     16.73%     50.32% # Number of insts commited each cycle (Count)
system.cpu.commit.numCommittedDist::2          490871      7.20%     57.52% # Number of insts commited each cycle (Count)
system.cpu.commit.numCommittedDist::3          712307     10.45%     67.96% # Number of insts commited each cycle (Count)
system.cpu.commit.numCommittedDist::4          285411      4.19%     72.15% # Number of insts commited each cycle (Count)
system.cpu.commit.numCommittedDist::5          143064      2.10%     74.24% # Number of insts commited each cycle (Count)
system.cpu.commit.numCommittedDist::6          168516      2.47%     76.72% # Number of insts commited each cycle (Count)
system.cpu.commit.numCommittedDist::7          163410      2.40%     79.11% # Number of insts commited each cycle (Count)
system.cpu.commit.numCommittedDist::8         1424453     20.89%    100.00% # Number of insts commited each cycle (Count)
system.cpu.commit.numCommittedDist::overflows            0      0.00%    100.00% # Number of insts commited each cycle (Count)
system.cpu.commit.numCommittedDist::min_value            0                       # Number of insts commited each cycle (Count)
system.cpu.commit.numCommittedDist::max_value            8                       # Number of insts commited each cycle (Count)
system.cpu.commit.numCommittedDist::total      6819526                       # Number of insts commited each cycle (Count)
system.cpu.commit.instsCommitted              9925623                       # Number of instructions committed (Count)
system.cpu.commit.opsCommitted               19667056                       # Number of ops (including micro ops) committed (Count)
system.cpu.commit.memRefs                     4296077                       # Number of memory references committed (Count)
system.cpu.commit.loads                       2788187                       # Number of loads committed (Count)
system.cpu.commit.amos                              0                       # Number of atomic instructions committed (Count)
system.cpu.commit.membars                         120                       # Number of memory barriers committed (Count)
system.cpu.commit.branches                    2308236                       # Number of branches committed (Count)
system.cpu.commit.vectorInstructions                0                       # Number of committed Vector instructions. (Count)
system.cpu.commit.floating                          0                       # Number of committed floating point instructions. (Count)
system.cpu.commit.integer                    19523277                       # Number of committed integer instructions. (Count)
system.cpu.commit.functionCalls                205540                       # Number of function calls committed. (Count)
system.cpu.commit.committedInstType_0::No_OpClass         5820      0.03%      0.03% # Class of committed instruction (Count)
system.cpu.commit.committedInstType_0::IntAlu     15201421     77.29%     77.32% # Class of committed instruction (Count)
system.cpu.commit.committedInstType_0::IntMult        89182      0.45%     77.78% # Class of committed instruction (Count)
system.cpu.commit.committedInstType_0::IntDiv        74556      0.38%     78.16% # Class of committed instruction (Count)
system.cpu.commit.committedInstType_0::FloatAdd            0      0.00%     78.16% # Class of committed instruction (Count)
system.cpu.commit.committedInstType_0::FloatCmp            0      0.00%     78.16% # Class of committed instruction (Count)
system.cpu.commit.committedInstType_0::FloatCvt            0      0.00%     78.16% # Class of committed instruction (Count)
system.cpu.commit.committedInstType_0::FloatMult            0      0.00%     78.16% # Class of committed instruction (Count)
system.cpu.commit.committedInstType_0::FloatMultAcc            0      0.00%     78.16% # Class of committed instruction (Count)
system.cpu.commit.committedInstType_0::FloatDiv            0      0.00%     78.16% # Class of committed instruction (Count)
system.cpu.commit.committedInstType_0::FloatMisc            0      0.00%     78.16% # Class of committed instruction (Count)
system.cpu.commit.committedInstType_0::FloatSqrt            0      0.00%     78.16% # Class of committed instruction (Count)
system.cpu.commit.committedInstType_0::SimdAdd            0      0.00%     78.16% # Class of committed instruction (Count)
system.cpu.commit.committedInstType_0::SimdAddAcc            0      0.00%     78.16% # Class of committed instruction (Count)
system.cpu.commit.committedInstType_0::SimdAlu            0      0.00%     78.16% # Class of committed instruction (Count)
system.cpu.commit.committedInstType_0::SimdCmp            0      0.00%     78.16% # Class of committed instruction (Count)
system.cpu.commit.committedInstType_0::SimdCvt            0      0.00%     78.16% # Class of committed instruction (Count)
system.cpu.commit.committedInstType_0::SimdMisc            0      0.00%     78.16% # Class of committed instruction (Count)
system.cpu.commit.committedInstType_0::SimdMult            0      0.00%     78.16% # Class of committed instruction (Count)
system.cpu.commit.committedInstType_0::SimdMultAcc            0      0.00%     78.16% # Class of committed instruction (Count)
system.cpu.commit.committedInstType_0::SimdShift            0      0.00%     78.16% # Class of committed instruction (Count)
system.cpu.commit.committedInstType_0::SimdShiftAcc            0      0.00%     78.16% # Class of committed instruction (Count)
system.cpu.commit.committedInstType_0::SimdDiv            0      0.00%     78.16% # Class of committed instruction (Count)
system.cpu.commit.committedInstType_0::SimdSqrt            0      0.00%     78.16% # Class of committed instruction (Count)
system.cpu.commit.committedInstType_0::SimdFloatAdd            0      0.00%     78.16% # Class of committed instruction (Count)
system.cpu.commit.committedInstType_0::SimdFloatAlu            0      0.00%     78.16% # Class of committed instruction (Count)
system.cpu.commit.committedInstType_0::SimdFloatCmp            0      0.00%     78.16% # Class of committed instruction (Count)
system.cpu.commit.committedInstType_0::SimdFloatCvt            0      0.00%     78.16% # Class of committed instruction (Count)
system.cpu.commit.committedInstType_0::SimdFloatDiv            0      0.00%     78.16% # Class of committed instruction (Count)
system.cpu.commit.committedInstType_0::SimdFloatMisc            0      0.00%     78.16% # Class of committed instruction (Count)
system.cpu.commit.committedInstType_0::SimdFloatMult            0      0.00%     78.16% # Class of committed instruction (Count)
system.cpu.commit.committedInstType_0::SimdFloatMultAcc            0      0.00%     78.16% # Class of committed instruction (Count)
system.cpu.commit.committedInstType_0::SimdFloatSqrt            0      0.00%     78.16% # Class of committed instruction (Count)
system.cpu.commit.committedInstType_0::SimdReduceAdd            0      0.00%     78.16% # Class of committed instruction (Count)
system.cpu.commit.committedInstType_0::SimdReduceAlu            0      0.00%     78.16% # Class of committed instruction (Count)
system.cpu.commit.committedInstType_0::SimdReduceCmp            0      0.00%     78.16% # Class of committed instruction (Count)
system.cpu.commit.committedInstType_0::SimdFloatReduceAdd            0      0.00%     78.16% # Class of committed instruction (Count)
system.cpu.commit.committedInstType_0::SimdFloatReduceCmp            0      0.00%     78.16% # Class of committed instruction (Count)
system.cpu.commit.committedInstType_0::SimdAes            0      0.00%     78.16% # Class of committed instruction (Count)
system.cpu.commit.committedInstType_0::SimdAesMix            0      0.00%     78.16% # Class of committed instruction (Count)
system.cpu.commit.committedInstType_0::SimdSha1Hash            0      0.00%     78.16% # Class of committed instruction (Count)
system.cpu.commit.committedInstType_0::SimdSha1Hash2            0      0.00%     78.16% # Class of committed instruction (Count)
system.cpu.commit.committedInstType_0::SimdSha256Hash            0      0.00%     78.16% # Class of committed instruction (Count)
system.cpu.commit.committedInstType_0::SimdSha256Hash2            0      0.00%     78.16% # Class of committed instruction (Count)
system.cpu.commit.committedInstType_0::SimdShaSigma2            0      0.00%     78.16% # Class of committed instruction (Count)
system.cpu.commit.committedInstType_0::SimdShaSigma3            0      0.00%     78.16% # Class of committed instruction (Count)
system.cpu.commit.committedInstType_0::SimdPredAlu            0      0.00%     78.16% # Class of committed instruction (Count)
system.cpu.commit.committedInstType_0::MemRead      2788187     14.18%     92.33% # Class of committed instruction (Count)
system.cpu.commit.committedInstType_0::MemWrite      1507890      7.67%    100.00% # Class of committed instruction (Count)
system.cpu.commit.committedInstType_0::FloatMemRead            0      0.00%    100.00% # Class of committed instruction (Count)
system.cpu.commit.committedInstType_0::FloatMemWrite            0      0.00%    100.00% # Class of committed instruction (Count)
system.cpu.commit.committedInstType_0::IprAccess            0      0.00%    100.00% # Class of committed instruction (Count)
system.cpu.commit.committedInstType_0::InstPrefetch            0      0.00%    100.00% # Class of committed instruction (Count)
system.cpu.commit.committedInstType_0::total     19667056                       # Class of committed instruction (Count)
system.cpu.commit.commitEligibleSamples       1424453                       # number cycles where commit BW limit reached (Cycle)
system.cpu.dcache.demandHits::cpu.data        3435931                       # number of demand (read+write) hits (Count)
system.cpu.dcache.demandHits::total           3435931                       # number of demand (read+write) hits (Count)
system.cpu.dcache.overallHits::cpu.data       3435931                       # number of overall hits (Count)
system.cpu.dcache.overallHits::total          3435931                       # number of overall hits (Count)
system.cpu.dcache.demandMisses::cpu.data        14412                       # number of demand (read+write) misses (Count)
system.cpu.dcache.demandMisses::total           14412                       # number of demand (read+write) misses (Count)
system.cpu.dcache.overallMisses::cpu.data        14412                       # number of overall misses (Count)
system.cpu.dcache.overallMisses::total          14412                       # number of overall misses (Count)
system.cpu.dcache.demandMissLatency::cpu.data   1003513499                       # number of demand (read+write) miss ticks (Tick)
system.cpu.dcache.demandMissLatency::total   1003513499                       # number of demand (read+write) miss ticks (Tick)
system.cpu.dcache.overallMissLatency::cpu.data   1003513499                       # number of overall miss ticks (Tick)
system.cpu.dcache.overallMissLatency::total   1003513499                       # number of overall miss ticks (Tick)
system.cpu.dcache.demandAccesses::cpu.data      3450343                       # number of demand (read+write) accesses (Count)
system.cpu.dcache.demandAccesses::total       3450343                       # number of demand (read+write) accesses (Count)
system.cpu.dcache.overallAccesses::cpu.data      3450343                       # number of overall (read+write) accesses (Count)
system.cpu.dcache.overallAccesses::total      3450343                       # number of overall (read+write) accesses (Count)
system.cpu.dcache.demandMissRate::cpu.data     0.004177                       # miss rate for demand accesses (Ratio)
system.cpu.dcache.demandMissRate::total      0.004177                       # miss rate for demand accesses (Ratio)
system.cpu.dcache.overallMissRate::cpu.data     0.004177                       # miss rate for overall accesses (Ratio)
system.cpu.dcache.overallMissRate::total     0.004177                       # miss rate for overall accesses (Ratio)
system.cpu.dcache.demandAvgMissLatency::cpu.data 69630.412087                       # average overall miss latency ((Cycle/Count))
system.cpu.dcache.demandAvgMissLatency::total 69630.412087                       # average overall miss latency ((Cycle/Count))
system.cpu.dcache.overallAvgMissLatency::cpu.data 69630.412087                       # average overall miss latency ((Cycle/Count))
system.cpu.dcache.overallAvgMissLatency::total 69630.412087                       # average overall miss latency ((Cycle/Count))
system.cpu.dcache.blockedCycles::no_mshrs         2833                       # number of cycles access was blocked (Cycle)
system.cpu.dcache.blockedCycles::no_targets          158                       # number of cycles access was blocked (Cycle)
system.cpu.dcache.blockedCauses::no_mshrs           68                       # number of times access was blocked (Count)
system.cpu.dcache.blockedCauses::no_targets            1                       # number of times access was blocked (Count)
system.cpu.dcache.avgBlocked::no_mshrs      41.661765                       # average number of cycles each access was blocked ((Cycle/Count))
system.cpu.dcache.avgBlocked::no_targets          158                       # average number of cycles each access was blocked ((Cycle/Count))
system.cpu.dcache.writebacks::writebacks        10825                       # number of writebacks (Count)
system.cpu.dcache.writebacks::total             10825                       # number of writebacks (Count)
system.cpu.dcache.demandMshrHits::cpu.data         2260                       # number of demand (read+write) MSHR hits (Count)
system.cpu.dcache.demandMshrHits::total          2260                       # number of demand (read+write) MSHR hits (Count)
system.cpu.dcache.overallMshrHits::cpu.data         2260                       # number of overall MSHR hits (Count)
system.cpu.dcache.overallMshrHits::total         2260                       # number of overall MSHR hits (Count)
system.cpu.dcache.demandMshrMisses::cpu.data        12152                       # number of demand (read+write) MSHR misses (Count)
system.cpu.dcache.demandMshrMisses::total        12152                       # number of demand (read+write) MSHR misses (Count)
system.cpu.dcache.overallMshrMisses::cpu.data        12152                       # number of overall MSHR misses (Count)
system.cpu.dcache.overallMshrMisses::total        12152                       # number of overall MSHR misses (Count)
system.cpu.dcache.demandMshrMissLatency::cpu.data    885657999                       # number of demand (read+write) MSHR miss ticks (Tick)
system.cpu.dcache.demandMshrMissLatency::total    885657999                       # number of demand (read+write) MSHR miss ticks (Tick)
system.cpu.dcache.overallMshrMissLatency::cpu.data    885657999                       # number of overall MSHR miss ticks (Tick)
system.cpu.dcache.overallMshrMissLatency::total    885657999                       # number of overall MSHR miss ticks (Tick)
system.cpu.dcache.demandMshrMissRate::cpu.data     0.003522                       # mshr miss ratio for demand accesses (Ratio)
system.cpu.dcache.demandMshrMissRate::total     0.003522                       # mshr miss ratio for demand accesses (Ratio)
system.cpu.dcache.overallMshrMissRate::cpu.data     0.003522                       # mshr miss ratio for overall accesses (Ratio)
system.cpu.dcache.overallMshrMissRate::total     0.003522                       # mshr miss ratio for overall accesses (Ratio)
system.cpu.dcache.demandAvgMshrMissLatency::cpu.data 72881.665487                       # average overall mshr miss latency ((Cycle/Count))
system.cpu.dcache.demandAvgMshrMissLatency::total 72881.665487                       # average overall mshr miss latency ((Cycle/Count))
system.cpu.dcache.overallAvgMshrMissLatency::cpu.data 72881.665487                       # average overall mshr miss latency ((Cycle/Count))
system.cpu.dcache.overallAvgMshrMissLatency::total 72881.665487                       # average overall mshr miss latency ((Cycle/Count))
system.cpu.dcache.replacements                  11632                       # number of replacements (Count)
system.cpu.dcache.ReadReq.hits::cpu.data      1937415                       # number of ReadReq hits (Count)
system.cpu.dcache.ReadReq.hits::total         1937415                       # number of ReadReq hits (Count)
system.cpu.dcache.ReadReq.misses::cpu.data         4974                       # number of ReadReq misses (Count)
system.cpu.dcache.ReadReq.misses::total          4974                       # number of ReadReq misses (Count)
system.cpu.dcache.ReadReq.missLatency::cpu.data    247681000                       # number of ReadReq miss ticks (Tick)
system.cpu.dcache.ReadReq.missLatency::total    247681000                       # number of ReadReq miss ticks (Tick)
system.cpu.dcache.ReadReq.accesses::cpu.data      1942389                       # number of ReadReq accesses(hits+misses) (Count)
system.cpu.dcache.ReadReq.accesses::total      1942389                       # number of ReadReq accesses(hits+misses) (Count)
system.cpu.dcache.ReadReq.missRate::cpu.data     0.002561                       # miss rate for ReadReq accesses (Ratio)
system.cpu.dcache.ReadReq.missRate::total     0.002561                       # miss rate for ReadReq accesses (Ratio)
system.cpu.dcache.ReadReq.avgMissLatency::cpu.data 49795.134700                       # average ReadReq miss latency ((Tick/Count))
system.cpu.dcache.ReadReq.avgMissLatency::total 49795.134700                       # average ReadReq miss latency ((Tick/Count))
system.cpu.dcache.ReadReq.mshrHits::cpu.data         2247                       # number of ReadReq MSHR hits (Count)
system.cpu.dcache.ReadReq.mshrHits::total         2247                       # number of ReadReq MSHR hits (Count)
system.cpu.dcache.ReadReq.mshrMisses::cpu.data         2727                       # number of ReadReq MSHR misses (Count)
system.cpu.dcache.ReadReq.mshrMisses::total         2727                       # number of ReadReq MSHR misses (Count)
system.cpu.dcache.ReadReq.mshrMissLatency::cpu.data    140084000                       # number of ReadReq MSHR miss ticks (Tick)
system.cpu.dcache.ReadReq.mshrMissLatency::total    140084000                       # number of ReadReq MSHR miss ticks (Tick)
system.cpu.dcache.ReadReq.mshrMissRate::cpu.data     0.001404                       # mshr miss rate for ReadReq accesses (Ratio)
system.cpu.dcache.ReadReq.mshrMissRate::total     0.001404                       # mshr miss rate for ReadReq accesses (Ratio)
system.cpu.dcache.ReadReq.avgMshrMissLatency::cpu.data 51369.270260                       # average ReadReq mshr miss latency ((Tick/Count))
system.cpu.dcache.ReadReq.avgMshrMissLatency::total 51369.270260                       # average ReadReq mshr miss latency ((Tick/Count))
system.cpu.dcache.WriteReq.hits::cpu.data      1498516                       # number of WriteReq hits (Count)
system.cpu.dcache.WriteReq.hits::total        1498516                       # number of WriteReq hits (Count)
system.cpu.dcache.WriteReq.misses::cpu.data         9438                       # number of WriteReq misses (Count)
system.cpu.dcache.WriteReq.misses::total         9438                       # number of WriteReq misses (Count)
system.cpu.dcache.WriteReq.missLatency::cpu.data    755832499                       # number of WriteReq miss ticks (Tick)
system.cpu.dcache.WriteReq.missLatency::total    755832499                       # number of WriteReq miss ticks (Tick)
system.cpu.dcache.WriteReq.accesses::cpu.data      1507954                       # number of WriteReq accesses(hits+misses) (Count)
system.cpu.dcache.WriteReq.accesses::total      1507954                       # number of WriteReq accesses(hits+misses) (Count)
system.cpu.dcache.WriteReq.missRate::cpu.data     0.006259                       # miss rate for WriteReq accesses (Ratio)
system.cpu.dcache.WriteReq.missRate::total     0.006259                       # miss rate for WriteReq accesses (Ratio)
system.cpu.dcache.WriteReq.avgMissLatency::cpu.data 80083.968955                       # average WriteReq miss latency ((Tick/Count))
system.cpu.dcache.WriteReq.avgMissLatency::total 80083.968955                       # average WriteReq miss latency ((Tick/Count))
system.cpu.dcache.WriteReq.mshrHits::cpu.data           13                       # number of WriteReq MSHR hits (Count)
system.cpu.dcache.WriteReq.mshrHits::total           13                       # number of WriteReq MSHR hits (Count)
system.cpu.dcache.WriteReq.mshrMisses::cpu.data         9425                       # number of WriteReq MSHR misses (Count)
system.cpu.dcache.WriteReq.mshrMisses::total         9425                       # number of WriteReq MSHR misses (Count)
system.cpu.dcache.WriteReq.mshrMissLatency::cpu.data    745573999                       # number of WriteReq MSHR miss ticks (Tick)
system.cpu.dcache.WriteReq.mshrMissLatency::total    745573999                       # number of WriteReq MSHR miss ticks (Tick)
system.cpu.dcache.WriteReq.mshrMissRate::cpu.data     0.006250                       # mshr miss rate for WriteReq accesses (Ratio)
system.cpu.dcache.WriteReq.mshrMissRate::total     0.006250                       # mshr miss rate for WriteReq accesses (Ratio)
system.cpu.dcache.WriteReq.avgMshrMissLatency::cpu.data 79105.994589                       # average WriteReq mshr miss latency ((Tick/Count))
system.cpu.dcache.WriteReq.avgMshrMissLatency::total 79105.994589                       # average WriteReq mshr miss latency ((Tick/Count))
system.cpu.dcache.power_state.pwrStateResidencyTicks::UNDEFINED   3633998000                       # Cumulative time (in ticks) in various power states (Tick)
system.cpu.dcache.tags.tagsInUse           505.312286                       # Average ticks per tags in use ((Tick/Count))
system.cpu.dcache.tags.totalRefs              3448084                       # Total number of references to valid blocks. (Count)
system.cpu.dcache.tags.sampledRefs              12144                       # Sample count of references to valid blocks. (Count)
system.cpu.dcache.tags.avgRefs             283.933136                       # Average number of references to valid blocks. ((Count/Count))
system.cpu.dcache.tags.warmupTick              176500                       # The tick when the warmup percentage was hit. (Tick)
system.cpu.dcache.tags.occupancies::cpu.data   505.312286                       # Average occupied blocks per tick, per requestor ((Count/Tick))
system.cpu.dcache.tags.avgOccs::cpu.data     0.986938                       # Average percentage of cache occupancy ((Ratio/Tick))
system.cpu.dcache.tags.avgOccs::total        0.986938                       # Average percentage of cache occupancy ((Ratio/Tick))
system.cpu.dcache.tags.occupanciesTaskId::1024          512                       # Occupied blocks per task id (Count)
system.cpu.dcache.tags.ageTaskId_1024::0           58                       # Occupied blocks per task id, per block age (Count)
system.cpu.dcache.tags.ageTaskId_1024::1          379                       # Occupied blocks per task id, per block age (Count)
system.cpu.dcache.tags.ageTaskId_1024::2           67                       # Occupied blocks per task id, per block age (Count)
system.cpu.dcache.tags.ageTaskId_1024::3            8                       # Occupied blocks per task id, per block age (Count)
system.cpu.dcache.tags.ratioOccsTaskId::1024            1                       # Ratio of occupied blocks and all blocks, per task id (Ratio)
system.cpu.dcache.tags.tagAccesses           13813516                       # Number of tag accesses (Count)
system.cpu.dcache.tags.dataAccesses          13813516                       # Number of data accesses (Count)
system.cpu.dcache.tags.power_state.pwrStateResidencyTicks::UNDEFINED   3633998000                       # Cumulative time (in ticks) in various power states (Tick)
system.cpu.decode.idleCycles                  1583811                       # Number of cycles decode is idle (Cycle)
system.cpu.decode.blockedCycles               2163241                       # Number of cycles decode is blocked (Cycle)
system.cpu.decode.runCycles                   3011997                       # Number of cycles decode is running (Cycle)
system.cpu.decode.unblockCycles                244693                       # Number of cycles decode is unblocking (Cycle)
system.cpu.decode.squashCycles                  45071                       # Number of cycles decode is squashing (Cycle)
system.cpu.decode.branchResolved              1014955                       # Number of times decode resolved a branch (Count)
system.cpu.decode.branchMispred                  7632                       # Number of times decode detected a branch misprediction (Count)
system.cpu.decode.decodedInsts               21846379                       # Number of instructions handled by decode (Count)
system.cpu.decode.squashedInsts                 30000                       # Number of squashed instructions handled by decode (Count)
system.cpu.dtb_walker_cache.blockedCycles::no_mshrs            0                       # number of cycles access was blocked (Cycle)
system.cpu.dtb_walker_cache.blockedCycles::no_targets            0                       # number of cycles access was blocked (Cycle)
system.cpu.dtb_walker_cache.blockedCauses::no_mshrs            0                       # number of times access was blocked (Count)
system.cpu.dtb_walker_cache.blockedCauses::no_targets            0                       # number of times access was blocked (Count)
system.cpu.dtb_walker_cache.avgBlocked::no_mshrs          nan                       # average number of cycles each access was blocked ((Cycle/Count))
system.cpu.dtb_walker_cache.avgBlocked::no_targets          nan                       # average number of cycles each access was blocked ((Cycle/Count))
system.cpu.dtb_walker_cache.replacements            0                       # number of replacements (Count)
system.cpu.dtb_walker_cache.power_state.pwrStateResidencyTicks::UNDEFINED   3633998000                       # Cumulative time (in ticks) in various power states (Tick)
system.cpu.dtb_walker_cache.tags.tagsInUse            0                       # Average ticks per tags in use ((Tick/Count))
system.cpu.dtb_walker_cache.tags.totalRefs            0                       # Total number of references to valid blocks. (Count)
system.cpu.dtb_walker_cache.tags.sampledRefs            0                       # Sample count of references to valid blocks. (Count)
system.cpu.dtb_walker_cache.tags.avgRefs          nan                       # Average number of references to valid blocks. ((Count/Count))
system.cpu.dtb_walker_cache.tags.warmupTick            0                       # The tick when the warmup percentage was hit. (Tick)
system.cpu.dtb_walker_cache.tags.tagAccesses            0                       # Number of tag accesses (Count)
system.cpu.dtb_walker_cache.tags.dataAccesses            0                       # Number of data accesses (Count)
system.cpu.dtb_walker_cache.tags.power_state.pwrStateResidencyTicks::UNDEFINED   3633998000                       # Cumulative time (in ticks) in various power states (Tick)
system.cpu.fetch.icacheStallCycles            1741902                       # Number of cycles fetch is stalled on an Icache miss (Cycle)
system.cpu.fetch.insts                       11212813                       # Number of instructions fetch has processed (Count)
system.cpu.fetch.branches                     2599598                       # Number of branches that fetch encountered (Count)
system.cpu.fetch.predictedBranches            1287901                       # Number of branches that fetch has predicted taken (Count)
system.cpu.fetch.cycles                       5253468                       # Number of cycles fetch has run and was not squashing or blocked (Cycle)
system.cpu.fetch.squashCycles                  105180                       # Number of cycles fetch has spent squashing (Cycle)
system.cpu.fetch.miscStallCycles                  100                       # Number of cycles fetch has spent waiting on interrupts, or bad addresses, or out of MSHRs (Cycle)
system.cpu.fetch.pendingTrapStallCycles           708                       # Number of stall cycles due to pending traps (Cycle)
system.cpu.fetch.pendingQuiesceStallCycles           17                       # Number of stall cycles due to pending quiesce instructions (Cycle)
system.cpu.fetch.icacheWaitRetryStallCycles           28                       # Number of stall cycles due to full MSHR (Cycle)
system.cpu.fetch.cacheLines                   1557908                       # Number of cache lines fetched (Count)
system.cpu.fetch.icacheSquashes                 18546                       # Number of outstanding Icache misses that were squashed (Count)
system.cpu.fetch.nisnDist::samples            7048813                       # Number of instructions fetched each cycle (Total) (Count)
system.cpu.fetch.nisnDist::mean              3.150473                       # Number of instructions fetched each cycle (Total) (Count)
system.cpu.fetch.nisnDist::stdev             3.561489                       # Number of instructions fetched each cycle (Total) (Count)
system.cpu.fetch.nisnDist::underflows               0      0.00%      0.00% # Number of instructions fetched each cycle (Total) (Count)
system.cpu.fetch.nisnDist::0                  3587583     50.90%     50.90% # Number of instructions fetched each cycle (Total) (Count)
system.cpu.fetch.nisnDist::1                   182085      2.58%     53.48% # Number of instructions fetched each cycle (Total) (Count)
system.cpu.fetch.nisnDist::2                   162786      2.31%     55.79% # Number of instructions fetched each cycle (Total) (Count)
system.cpu.fetch.nisnDist::3                   125460      1.78%     57.57% # Number of instructions fetched each cycle (Total) (Count)
system.cpu.fetch.nisnDist::4                   223724      3.17%     60.74% # Number of instructions fetched each cycle (Total) (Count)
system.cpu.fetch.nisnDist::5                   290084      4.12%     64.86% # Number of instructions fetched each cycle (Total) (Count)
system.cpu.fetch.nisnDist::6                   314180      4.46%     69.32% # Number of instructions fetched each cycle (Total) (Count)
system.cpu.fetch.nisnDist::7                   210628      2.99%     72.30% # Number of instructions fetched each cycle (Total) (Count)
system.cpu.fetch.nisnDist::8                  1952283     27.70%    100.00% # Number of instructions fetched each cycle (Total) (Count)
system.cpu.fetch.nisnDist::overflows                0      0.00%    100.00% # Number of instructions fetched each cycle (Total) (Count)
system.cpu.fetch.nisnDist::min_value                0                       # Number of instructions fetched each cycle (Total) (Count)
system.cpu.fetch.nisnDist::max_value                8                       # Number of instructions fetched each cycle (Total) (Count)
system.cpu.fetch.nisnDist::total              7048813                       # Number of instructions fetched each cycle (Total) (Count)
system.cpu.fetch.branchRate                  0.357677                       # Number of branch fetches per cycle (Ratio)
system.cpu.fetch.rate                        1.542765                       # Number of inst fetches per cycle ((Count/Cycle))
system.cpu.icache.demandHits::cpu.inst        1550316                       # number of demand (read+write) hits (Count)
system.cpu.icache.demandHits::total           1550316                       # number of demand (read+write) hits (Count)
system.cpu.icache.overallHits::cpu.inst       1550316                       # number of overall hits (Count)
system.cpu.icache.overallHits::total          1550316                       # number of overall hits (Count)
system.cpu.icache.demandMisses::cpu.inst         7592                       # number of demand (read+write) misses (Count)
system.cpu.icache.demandMisses::total            7592                       # number of demand (read+write) misses (Count)
system.cpu.icache.overallMisses::cpu.inst         7592                       # number of overall misses (Count)
system.cpu.icache.overallMisses::total           7592                       # number of overall misses (Count)
system.cpu.icache.demandMissLatency::cpu.inst    355713498                       # number of demand (read+write) miss ticks (Tick)
system.cpu.icache.demandMissLatency::total    355713498                       # number of demand (read+write) miss ticks (Tick)
system.cpu.icache.overallMissLatency::cpu.inst    355713498                       # number of overall miss ticks (Tick)
system.cpu.icache.overallMissLatency::total    355713498                       # number of overall miss ticks (Tick)
system.cpu.icache.demandAccesses::cpu.inst      1557908                       # number of demand (read+write) accesses (Count)
system.cpu.icache.demandAccesses::total       1557908                       # number of demand (read+write) accesses (Count)
system.cpu.icache.overallAccesses::cpu.inst      1557908                       # number of overall (read+write) accesses (Count)
system.cpu.icache.overallAccesses::total      1557908                       # number of overall (read+write) accesses (Count)
system.cpu.icache.demandMissRate::cpu.inst     0.004873                       # miss rate for demand accesses (Ratio)
system.cpu.icache.demandMissRate::total      0.004873                       # miss rate for demand accesses (Ratio)
system.cpu.icache.overallMissRate::cpu.inst     0.004873                       # miss rate for overall accesses (Ratio)
system.cpu.icache.overallMissRate::total     0.004873                       # miss rate for overall accesses (Ratio)
system.cpu.icache.demandAvgMissLatency::cpu.inst 46853.727345                       # average overall miss latency ((Cycle/Count))
system.cpu.icache.demandAvgMissLatency::total 46853.727345                       # average overall miss latency ((Cycle/Count))
system.cpu.icache.overallAvgMissLatency::cpu.inst 46853.727345                       # average overall miss latency ((Cycle/Count))
system.cpu.icache.overallAvgMissLatency::total 46853.727345                       # average overall miss latency ((Cycle/Count))
system.cpu.icache.blockedCycles::no_mshrs          930                       # number of cycles access was blocked (Cycle)
system.cpu.icache.blockedCycles::no_targets            0                       # number of cycles access was blocked (Cycle)
system.cpu.icache.blockedCauses::no_mshrs           17                       # number of times access was blocked (Count)
system.cpu.icache.blockedCauses::no_targets            0                       # number of times access was blocked (Count)
system.cpu.icache.avgBlocked::no_mshrs      54.705882                       # average number of cycles each access was blocked ((Cycle/Count))
system.cpu.icache.avgBlocked::no_targets          nan                       # average number of cycles each access was blocked ((Cycle/Count))
system.cpu.icache.writebacks::writebacks         5967                       # number of writebacks (Count)
system.cpu.icache.writebacks::total              5967                       # number of writebacks (Count)
system.cpu.icache.demandMshrHits::cpu.inst         1104                       # number of demand (read+write) MSHR hits (Count)
system.cpu.icache.demandMshrHits::total          1104                       # number of demand (read+write) MSHR hits (Count)
system.cpu.icache.overallMshrHits::cpu.inst         1104                       # number of overall MSHR hits (Count)
system.cpu.icache.overallMshrHits::total         1104                       # number of overall MSHR hits (Count)
system.cpu.icache.demandMshrMisses::cpu.inst         6488                       # number of demand (read+write) MSHR misses (Count)
system.cpu.icache.demandMshrMisses::total         6488                       # number of demand (read+write) MSHR misses (Count)
system.cpu.icache.overallMshrMisses::cpu.inst         6488                       # number of overall MSHR misses (Count)
system.cpu.icache.overallMshrMisses::total         6488                       # number of overall MSHR misses (Count)
system.cpu.icache.demandMshrMissLatency::cpu.inst    292373498                       # number of demand (read+write) MSHR miss ticks (Tick)
system.cpu.icache.demandMshrMissLatency::total    292373498                       # number of demand (read+write) MSHR miss ticks (Tick)
system.cpu.icache.overallMshrMissLatency::cpu.inst    292373498                       # number of overall MSHR miss ticks (Tick)
system.cpu.icache.overallMshrMissLatency::total    292373498                       # number of overall MSHR miss ticks (Tick)
system.cpu.icache.demandMshrMissRate::cpu.inst     0.004165                       # mshr miss ratio for demand accesses (Ratio)
system.cpu.icache.demandMshrMissRate::total     0.004165                       # mshr miss ratio for demand accesses (Ratio)
system.cpu.icache.overallMshrMissRate::cpu.inst     0.004165                       # mshr miss ratio for overall accesses (Ratio)
system.cpu.icache.overallMshrMissRate::total     0.004165                       # mshr miss ratio for overall accesses (Ratio)
system.cpu.icache.demandAvgMshrMissLatency::cpu.inst 45063.732737                       # average overall mshr miss latency ((Cycle/Count))
system.cpu.icache.demandAvgMshrMissLatency::total 45063.732737                       # average overall mshr miss latency ((Cycle/Count))
system.cpu.icache.overallAvgMshrMissLatency::cpu.inst 45063.732737                       # average overall mshr miss latency ((Cycle/Count))
system.cpu.icache.overallAvgMshrMissLatency::total 45063.732737                       # average overall mshr miss latency ((Cycle/Count))
system.cpu.icache.replacements                   5967                       # number of replacements (Count)
system.cpu.icache.ReadReq.hits::cpu.inst      1550316                       # number of ReadReq hits (Count)
system.cpu.icache.ReadReq.hits::total         1550316                       # number of ReadReq hits (Count)
system.cpu.icache.ReadReq.misses::cpu.inst         7592                       # number of ReadReq misses (Count)
system.cpu.icache.ReadReq.misses::total          7592                       # number of ReadReq misses (Count)
system.cpu.icache.ReadReq.missLatency::cpu.inst    355713498                       # number of ReadReq miss ticks (Tick)
system.cpu.icache.ReadReq.missLatency::total    355713498                       # number of ReadReq miss ticks (Tick)
system.cpu.icache.ReadReq.accesses::cpu.inst      1557908                       # number of ReadReq accesses(hits+misses) (Count)
system.cpu.icache.ReadReq.accesses::total      1557908                       # number of ReadReq accesses(hits+misses) (Count)
system.cpu.icache.ReadReq.missRate::cpu.inst     0.004873                       # miss rate for ReadReq accesses (Ratio)
system.cpu.icache.ReadReq.missRate::total     0.004873                       # miss rate for ReadReq accesses (Ratio)
system.cpu.icache.ReadReq.avgMissLatency::cpu.inst 46853.727345                       # average ReadReq miss latency ((Tick/Count))
system.cpu.icache.ReadReq.avgMissLatency::total 46853.727345                       # average ReadReq miss latency ((Tick/Count))
system.cpu.icache.ReadReq.mshrHits::cpu.inst         1104                       # number of ReadReq MSHR hits (Count)
system.cpu.icache.ReadReq.mshrHits::total         1104                       # number of ReadReq MSHR hits (Count)
system.cpu.icache.ReadReq.mshrMisses::cpu.inst         6488                       # number of ReadReq MSHR misses (Count)
system.cpu.icache.ReadReq.mshrMisses::total         6488                       # number of ReadReq MSHR misses (Count)
system.cpu.icache.ReadReq.mshrMissLatency::cpu.inst    292373498                       # number of ReadReq MSHR miss ticks (Tick)
system.cpu.icache.ReadReq.mshrMissLatency::total    292373498                       # number of ReadReq MSHR miss ticks (Tick)
system.cpu.icache.ReadReq.mshrMissRate::cpu.inst     0.004165                       # mshr miss rate for ReadReq accesses (Ratio)
system.cpu.icache.ReadReq.mshrMissRate::total     0.004165                       # mshr miss rate for ReadReq accesses (Ratio)
system.cpu.icache.ReadReq.avgMshrMissLatency::cpu.inst 45063.732737                       # average ReadReq mshr miss latency ((Tick/Count))
system.cpu.icache.ReadReq.avgMshrMissLatency::total 45063.732737                       # average ReadReq mshr miss latency ((Tick/Count))
system.cpu.icache.power_state.pwrStateResidencyTicks::UNDEFINED   3633998000                       # Cumulative time (in ticks) in various power states (Tick)
system.cpu.icache.tags.tagsInUse           501.932099                       # Average ticks per tags in use ((Tick/Count))
system.cpu.icache.tags.totalRefs              1556804                       # Total number of references to valid blocks. (Count)
system.cpu.icache.tags.sampledRefs               6488                       # Sample count of references to valid blocks. (Count)
system.cpu.icache.tags.avgRefs             239.951295                       # Average number of references to valid blocks. ((Count/Count))
system.cpu.icache.tags.warmupTick               87500                       # The tick when the warmup percentage was hit. (Tick)
system.cpu.icache.tags.occupancies::cpu.inst   501.932099                       # Average occupied blocks per tick, per requestor ((Count/Tick))
system.cpu.icache.tags.avgOccs::cpu.inst     0.980336                       # Average percentage of cache occupancy ((Ratio/Tick))
system.cpu.icache.tags.avgOccs::total        0.980336                       # Average percentage of cache occupancy ((Ratio/Tick))
system.cpu.icache.tags.occupanciesTaskId::1024          510                       # Occupied blocks per task id (Count)
system.cpu.icache.tags.ageTaskId_1024::0          114                       # Occupied blocks per task id, per block age (Count)
system.cpu.icache.tags.ageTaskId_1024::1          274                       # Occupied blocks per task id, per block age (Count)
system.cpu.icache.tags.ageTaskId_1024::2          113                       # Occupied blocks per task id, per block age (Count)
system.cpu.icache.tags.ageTaskId_1024::3            9                       # Occupied blocks per task id, per block age (Count)
system.cpu.icache.tags.ratioOccsTaskId::1024     0.996094                       # Ratio of occupied blocks and all blocks, per task id (Ratio)
system.cpu.icache.tags.tagAccesses            6238120                       # Number of tag accesses (Count)
system.cpu.icache.tags.dataAccesses           6238120                       # Number of data accesses (Count)
system.cpu.icache.tags.power_state.pwrStateResidencyTicks::UNDEFINED   3633998000                       # Cumulative time (in ticks) in various power states (Tick)
[...]
system.mem_ctrls.dram.perBankWrBursts::14          316                       # Per bank write bursts (Count)
system.mem_ctrls.dram.perBankWrBursts::15          414                       # Per bank write bursts (Count)
system.mem_ctrls.dram.totQLat               150315250                       # Total ticks spent queuing (Tick)
system.mem_ctrls.dram.totBusLat              67640000                       # Total ticks spent in databus transfers (Tick)
system.mem_ctrls.dram.totMemAccLat          403965250                       # Total ticks spent from burst creation until serviced by the DRAM (Tick)
system.mem_ctrls.dram.avgQLat                11111.42                       # Average queueing delay per DRAM burst ((Tick/Count))
system.mem_ctrls.dram.avgBusLat               5000.00                       # Average bus latency per DRAM burst ((Tick/Count))
system.mem_ctrls.dram.avgMemAccLat           29861.42                       # Average memory access latency per DRAM burst ((Tick/Count))
system.mem_ctrls.dram.readRowHits                9676                       # Number of row buffer hits during reads (Count)
system.mem_ctrls.dram.writeRowHits               4788                       # Number of row buffer hits during writes (Count)
system.mem_ctrls.dram.readRowHitRate            71.53                       # Row buffer hit rate for reads (Ratio)
system.mem_ctrls.dram.writeRowHitRate           64.05                       # Row buffer hit rate for writes (Ratio)
system.mem_ctrls.dram.bytesPerActivate::samples         6526                       # Bytes accessed per row activation (Byte)
system.mem_ctrls.dram.bytesPerActivate::mean   205.572786                       # Bytes accessed per row activation (Byte)
system.mem_ctrls.dram.bytesPerActivate::gmean   143.323784                       # Bytes accessed per row activation (Byte)
system.mem_ctrls.dram.bytesPerActivate::stdev   209.836146                       # Bytes accessed per row activation (Byte)
system.mem_ctrls.dram.bytesPerActivate::0-127         2526     38.71%     38.71% # Bytes accessed per row activation (Byte)
system.mem_ctrls.dram.bytesPerActivate::128-255         2165     33.17%     71.88% # Bytes accessed per row activation (Byte)
system.mem_ctrls.dram.bytesPerActivate::256-383          859     13.16%     85.04% # Bytes accessed per row activation (Byte)
system.mem_ctrls.dram.bytesPerActivate::384-511          375      5.75%     90.79% # Bytes accessed per row activation (Byte)
system.mem_ctrls.dram.bytesPerActivate::512-639          203      3.11%     93.90% # Bytes accessed per row activation (Byte)
system.mem_ctrls.dram.bytesPerActivate::640-767          110      1.69%     95.59% # Bytes accessed per row activation (Byte)
system.mem_ctrls.dram.bytesPerActivate::768-895           71      1.09%     96.67% # Bytes accessed per row activation (Byte)
system.mem_ctrls.dram.bytesPerActivate::896-1023           58      0.89%     97.56% # Bytes accessed per row activation (Byte)
system.mem_ctrls.dram.bytesPerActivate::1024-1151          159      2.44%    100.00% # Bytes accessed per row activation (Byte)
system.mem_ctrls.dram.bytesPerActivate::total         6526                       # Bytes accessed per row activation (Byte)
system.mem_ctrls.dram.bytesRead                865792                       # Total number of bytes read from DRAM (Byte)
system.mem_ctrls.dram.bytesWritten             478400                       # Total number of bytes written to DRAM (Byte)
system.mem_ctrls.dram.avgRdBW              238.247792                       # Average DRAM read bandwidth in MiBytes/s ((Byte/Second))
system.mem_ctrls.dram.avgWrBW              131.645642                       # Average DRAM write bandwidth in MiBytes/s ((Byte/Second))
system.mem_ctrls.dram.peakBW                 12800.00                       # Theoretical peak bandwidth in MiByte/s ((Byte/Second))
system.mem_ctrls.dram.busUtil                    2.89                       # Data bus utilization in percentage (Ratio)
system.mem_ctrls.dram.busUtilRead                1.86                       # Data bus utilization in percentage for reads (Ratio)
system.mem_ctrls.dram.busUtilWrite               1.03                       # Data bus utilization in percentage for writes (Ratio)
system.mem_ctrls.dram.pageHitRate               68.87                       # Row buffer hit rate, read and write combined (Ratio)
system.mem_ctrls.dram.power_state.pwrStateResidencyTicks::UNDEFINED   3633998000                       # Cumulative time (in ticks) in various power states (Tick)
system.mem_ctrls.dram.rank0.actEnergy        25782540                       # Energy for activate commands per rank (pJ) (Joule)
system.mem_ctrls.dram.rank0.preEnergy        13677180                       # Energy for precharge commands per rank (pJ) (Joule)
system.mem_ctrls.dram.rank0.readEnergy       51108120                       # Energy for read commands per rank (pJ) (Joule)
system.mem_ctrls.dram.rank0.writeEnergy      23516100                       # Energy for write commands per rank (pJ) (Joule)
system.mem_ctrls.dram.rank0.refreshEnergy 286422240.000000                       # Energy for refresh commands per rank (pJ) (Joule)
system.mem_ctrls.dram.rank0.actBackEnergy   1234516830                       # Energy for active background per rank (pJ) (Joule)
system.mem_ctrls.dram.rank0.preBackEnergy    355862400                       # Energy for precharge background per rank (pJ) (Joule)
system.mem_ctrls.dram.rank0.actPowerDownEnergy            0                       # Energy for active power-down per rank (pJ) (Joule)
system.mem_ctrls.dram.rank0.prePowerDownEnergy            0                       # Energy for precharge power-down per rank (pJ) (Joule)
system.mem_ctrls.dram.rank0.selfRefreshEnergy            0                       # Energy for self refresh per rank (pJ) (Joule)
system.mem_ctrls.dram.rank0.totalEnergy    1990885410                       # Total energy per rank (pJ) (Joule)
system.mem_ctrls.dram.rank0.averagePower   547.849891                       # Core power per rank (mW) (Watt)
system.mem_ctrls.dram.rank0.totalIdleTime            0                       # Total Idle time Per DRAM Rank (Tick)
system.mem_ctrls.dram.rank0.pwrStateTime::IDLE    914130250                       # Time in different power states (Tick)
system.mem_ctrls.dram.rank0.pwrStateTime::REF    121160000                       # Time in different power states (Tick)
system.mem_ctrls.dram.rank0.pwrStateTime::SREF            0                       # Time in different power states (Tick)
system.mem_ctrls.dram.rank0.pwrStateTime::PRE_PDN            0                       # Time in different power states (Tick)
system.mem_ctrls.dram.rank0.pwrStateTime::ACT   2598707750                       # Time in different power states (Tick)
system.mem_ctrls.dram.rank0.pwrStateTime::ACT_PDN            0                       # Time in different power states (Tick)
system.mem_ctrls.dram.rank1.actEnergy        20905920                       # Energy for activate commands per rank (pJ) (Joule)
system.mem_ctrls.dram.rank1.preEnergy        11088990                       # Energy for precharge commands per rank (pJ) (Joule)
system.mem_ctrls.dram.rank1.readEnergy       45481800                       # Energy for read commands per rank (pJ) (Joule)
system.mem_ctrls.dram.rank1.writeEnergy      15503400                       # Energy for write commands per rank (pJ) (Joule)
system.mem_ctrls.dram.rank1.refreshEnergy 286422240.000000                       # Energy for refresh commands per rank (pJ) (Joule)
system.mem_ctrls.dram.rank1.actBackEnergy   1126634640                       # Energy for active background per rank (pJ) (Joule)
system.mem_ctrls.dram.rank1.preBackEnergy    446710560                       # Energy for precharge background per rank (pJ) (Joule)
system.mem_ctrls.dram.rank1.actPowerDownEnergy            0                       # Energy for active power-down per rank (pJ) (Joule)
system.mem_ctrls.dram.rank1.prePowerDownEnergy            0                       # Energy for precharge power-down per rank (pJ) (Joule)
system.mem_ctrls.dram.rank1.selfRefreshEnergy            0                       # Energy for self refresh per rank (pJ) (Joule)
system.mem_ctrls.dram.rank1.totalEnergy    1952747550                       # Total energy per rank (pJ) (Joule)
system.mem_ctrls.dram.rank1.averagePower   537.355153                       # Core power per rank (mW) (Watt)
system.mem_ctrls.dram.rank1.totalIdleTime            0                       # Total Idle time Per DRAM Rank (Tick)
system.mem_ctrls.dram.rank1.pwrStateTime::IDLE   1150982500                       # Time in different power states (Tick)
system.mem_ctrls.dram.rank1.pwrStateTime::REF    121160000                       # Time in different power states (Tick)
system.mem_ctrls.dram.rank1.pwrStateTime::SREF            0                       # Time in different power states (Tick)
system.mem_ctrls.dram.rank1.pwrStateTime::PRE_PDN            0                       # Time in different power states (Tick)
system.mem_ctrls.dram.rank1.pwrStateTime::ACT   2361855500                       # Time in different power states (Tick)
system.mem_ctrls.dram.rank1.pwrStateTime::ACT_PDN            0                       # Time in different power states (Tick)
system.mem_ctrls.power_state.pwrStateResidencyTicks::UNDEFINED   3633998000                       # Cumulative time (in ticks) in various power states (Tick)
system.membus.transDist::ReadResp                4212                       # Transaction distribution (Count)
system.membus.transDist::WritebackDirty          7493                       # Transaction distribution (Count)
system.membus.transDist::CleanEvict              1856                       # Transaction distribution (Count)
system.membus.transDist::ReadExReq               9320                       # Transaction distribution (Count)
system.membus.transDist::ReadExResp              9320                       # Transaction distribution (Count)
system.membus.transDist::ReadSharedReq           4212                       # Transaction distribution (Count)
system.membus.pktCount_system.l2.mem_side_port::system.mem_ctrls.port        36413                       # Packet count per connected requestor and responder (Count)
system.membus.pktCount_system.l2.mem_side_port::total        36413                       # Packet count per connected requestor and responder (Count)
system.membus.pktCount::total                   36413                       # Packet count per connected requestor and responder (Count)
system.membus.pktSize_system.l2.mem_side_port::system.mem_ctrls.port      1345600                       # Cumulative packet size per connected requestor and responder (Byte)
system.membus.pktSize_system.l2.mem_side_port::total      1345600                       # Cumulative packet size per connected requestor and responder (Byte)
system.membus.pktSize::total                  1345600                       # Cumulative packet size per connected requestor and responder (Byte)
system.membus.snoops                                0                       # Total snoops (Count)
system.membus.snoopTraffic                          0                       # Total snoop traffic (Byte)
system.membus.snoopFanout::samples              13532                       # Request fanout histogram (Count)
system.membus.snoopFanout::mean                     0                       # Request fanout histogram (Count)
system.membus.snoopFanout::stdev                    0                       # Request fanout histogram (Count)
system.membus.snoopFanout::underflows               0      0.00%      0.00% # Request fanout histogram (Count)
system.membus.snoopFanout::0                    13532    100.00%    100.00% # Request fanout histogram (Count)
system.membus.snoopFanout::1                        0      0.00%    100.00% # Request fanout histogram (Count)
system.membus.snoopFanout::overflows                0      0.00%    100.00% # Request fanout histogram (Count)
system.membus.snoopFanout::min_value                0                       # Request fanout histogram (Count)
system.membus.snoopFanout::max_value                0                       # Request fanout histogram (Count)
system.membus.snoopFanout::total                13532                       # Request fanout histogram (Count)
system.membus.power_state.pwrStateResidencyTicks::UNDEFINED   3633998000                       # Cumulative time (in ticks) in various power states (Tick)
system.membus.reqLayer2.occupancy            55801000                       # Layer occupancy (ticks) (Tick)
system.membus.reqLayer2.utilization               0.0                       # Layer utilization (Ratio)
system.membus.respLayer1.occupancy           72256000                       # Layer occupancy (ticks) (Tick)
system.membus.respLayer1.utilization              0.0                       # Layer utilization (Ratio)
system.membus.snoop_filter.totRequests          22881                       # Total number of requests made to the snoop filter. (Count)
system.membus.snoop_filter.hitSingleRequests         9350                       # Number of requests hitting in the snoop filter with a single holder of the requested data. (Count)
system.membus.snoop_filter.hitMultiRequests            0                       # Number of requests hitting in the snoop filter with multiple (>1) holders of the requested data. (Count)
system.membus.snoop_filter.totSnoops                0                       # Total number of snoops made to the snoop filter. (Count)
system.membus.snoop_filter.hitSingleSnoops            0                       # Number of snoops hitting in the snoop filter with a single holder of the requested data. (Count)
system.membus.snoop_filter.hitMultiSnoops            0                       # Number of snoops hitting in the snoop filter with multiple (>1) holders of the requested data. (Count)
system.tol2bus.transDist::ReadResp               9215                       # Transaction distribution (Count)
system.tol2bus.transDist::WritebackDirty        18318                       # Transaction distribution (Count)
system.tol2bus.transDist::WritebackClean         5967                       # Transaction distribution (Count)
system.tol2bus.transDist::CleanEvict             3603                       # Transaction distribution (Count)
system.tol2bus.transDist::UpgradeReq                8                       # Transaction distribution (Count)
system.tol2bus.transDist::UpgradeResp               8                       # Transaction distribution (Count)
system.tol2bus.transDist::ReadExReq              9417                       # Transaction distribution (Count)
system.tol2bus.transDist::ReadExResp             9417                       # Transaction distribution (Count)
system.tol2bus.transDist::ReadCleanReq           6488                       # Transaction distribution (Count)
system.tol2bus.transDist::ReadSharedReq          2727                       # Transaction distribution (Count)
system.tol2bus.pktCount_system.cpu.icache.mem_side_port::system.l2.cpu_side_port        18931                       # Packet count per connected requestor and responder (Count)
system.tol2bus.pktCount_system.cpu.dcache.mem_side_port::system.l2.cpu_side_port        35936                       # Packet count per connected requestor and responder (Count)
system.tol2bus.pktCount::total                  54867                       # Packet count per connected requestor and responder (Count)
system.tol2bus.pktSize_system.cpu.icache.mem_side_port::system.l2.cpu_side_port       796352                       # Cumulative packet size per connected requestor and responder (Byte)
system.tol2bus.pktSize_system.cpu.dcache.mem_side_port::system.l2.cpu_side_port      1470016                       # Cumulative packet size per connected requestor and responder (Byte)
system.tol2bus.pktSize::total                 2266368                       # Cumulative packet size per connected requestor and responder (Byte)
system.tol2bus.snoops                           10301                       # Total snoops (Count)
system.tol2bus.snoopTraffic                    480320                       # Total snoop traffic (Byte)
system.tol2bus.snoopFanout::samples             28929                       # Request fanout histogram (Count)
system.tol2bus.snoopFanout::mean             0.035293                       # Request fanout histogram (Count)
system.tol2bus.snoopFanout::stdev            0.185085                       # Request fanout histogram (Count)
system.tol2bus.snoopFanout::underflows              0      0.00%      0.00% # Request fanout histogram (Count)
system.tol2bus.snoopFanout::0                   27911     96.48%     96.48% # Request fanout histogram (Count)
system.tol2bus.snoopFanout::1                    1015      3.51%     99.99% # Request fanout histogram (Count)
system.tol2bus.snoopFanout::2                       3      0.01%    100.00% # Request fanout histogram (Count)
system.tol2bus.snoopFanout::3                       0      0.00%    100.00% # Request fanout histogram (Count)
system.tol2bus.snoopFanout::4                       0      0.00%    100.00% # Request fanout histogram (Count)
system.tol2bus.snoopFanout::overflows               0      0.00%    100.00% # Request fanout histogram (Count)
system.tol2bus.snoopFanout::min_value               0                       # Request fanout histogram (Count)
system.tol2bus.snoopFanout::max_value               2                       # Request fanout histogram (Count)
system.tol2bus.snoopFanout::total               28929                       # Request fanout histogram (Count)
system.tol2bus.power_state.pwrStateResidencyTicks::UNDEFINED   3633998000                       # Cumulative time (in ticks) in various power states (Tick)
system.tol2bus.reqLayer0.occupancy           34911999                       # Layer occupancy (ticks) (Tick)
system.tol2bus.reqLayer0.utilization              0.0                       # Layer utilization (Ratio)
system.tol2bus.respLayer0.occupancy           9733497                       # Layer occupancy (ticks) (Tick)
system.tol2bus.respLayer0.utilization             0.0                       # Layer utilization (Ratio)
system.tol2bus.respLayer1.occupancy          18222994                       # Layer occupancy (ticks) (Tick)
system.tol2bus.respLayer1.utilization             0.0                       # Layer utilization (Ratio)
system.tol2bus.snoop_filter.totRequests         36239                       # Total number of requests made to the snoop filter. (Count)
system.tol2bus.snoop_filter.hitSingleRequests        17609                       # Number of requests hitting in the snoop filter with a single holder of the requested data. (Count)
system.tol2bus.snoop_filter.hitMultiRequests           38                       # Number of requests hitting in the snoop filter with multiple (>1) holders of the requested data. (Count)
system.tol2bus.snoop_filter.totSnoops             970                       # Total number of snoops made to the snoop filter. (Count)
system.tol2bus.snoop_filter.hitSingleSnoops          967                       # Number of snoops hitting in the snoop filter with a single holder of the requested data. (Count)
system.tol2bus.snoop_filter.hitMultiSnoops            3                       # Number of snoops hitting in the snoop filter with multiple (>1) holders of the requested data. (Count)
system.voltage_domain.voltage                       1                       # Voltage in Volts (Volt)
system.workload.inst.arm                            0                       # number of arm instructions executed (Count)
system.workload.inst.quiesce                        0                       # number of quiesce instructions executed (Count)

---------- End Simulation Statistics   ----------
