
---------- Begin Simulation Statistics ----------
simSeconds                                   0.003073                       # Number of seconds simulated (Second)
simTicks                                   3073436000                       # Number of ticks simulated (Tick)
finalTick                                  3073436000                       # Number of ticks from beginning of simulation (restored from checkpoints and never reset) (Tick)
simFreq                                  1000000000000                       # The number of ticks per simulated second ((Tick/Second))
hostSeconds                                     49.20                       # Real time elapsed on the host (Second)
hostTickRate                                 62469081                       # The number of ticks simulated per host second (ticks/s) ((Tick/Second))
hostMemory                                     655444                       # Number of bytes of host memory used (Byte)
simInsts                                     12198815                       # Number of instructions simulated (Count)
simOps                                       21108420                       # Number of ops (including micro ops) simulated (Count)
hostInstRate                                   247946                       # Simulator instruction rate (inst/s) ((Count/Second))
hostOpRate                                     429038                       # Simulator op (including micro ops) rate (op/s) ((Count/Second))
system.clk_domain.clock                          1000                       # Clock period in ticks (Tick)
system.cpu.numCycles                          6146873                       # Number of cpu cycles simulated (Cycle)
system.cpu.numWorkItemsStarted                      0                       # Number of work items this cpu started (Count)
system.cpu.numWorkItemsCompleted                    0                       # Number of work items this cpu completed (Count)
system.cpu.instsAdded                        21738094                       # Number of instructions added to the IQ (excludes non-spec) (Count)
system.cpu.nonSpecInstsAdded                      344                       # Number of non-speculative instructions added to the IQ (Count)
system.cpu.instsIssued                       21573219                       # Number of instructions issued (Count)
system.cpu.squashedInstsIssued                    971                       # Number of squashed instructions issued (Count)
system.cpu.squashedInstsExamined               629996                       # Number of squashed instructions iterated over during squash; mainly for profiling (Count)
system.cpu.squashedOperandsExamined            712124                       # Number of squashed operands that are examined and possibly removed from graph (Count)
system.cpu.squashedNonSpecRemoved                 337                       # Number of squashed non-spec instructions that were removed (Count)
system.cpu.numIssuedDist::samples             6081395                       # Number of insts issued each cycle (Count)
system.cpu.numIssuedDist::mean               3.547413                       # Number of insts issued each cycle (Count)
system.cpu.numIssuedDist::stdev              2.009873                       # Number of insts issued each cycle (Count)
system.cpu.numIssuedDist::underflows                0      0.00%      0.00% # Number of insts issued each cycle (Count)
system.cpu.numIssuedDist::0                    656198     10.79%     10.79% # Number of insts issued each cycle (Count)
system.cpu.numIssuedDist::1                    310530      5.11%     15.90% # Number of insts issued each cycle (Count)
system.cpu.numIssuedDist::2                    760416     12.50%     28.40% # Number of insts issued each cycle (Count)
system.cpu.numIssuedDist::3                   1271329     20.91%     49.31% # Number of insts issued each cycle (Count)
system.cpu.numIssuedDist::4                   1099909     18.09%     67.39% # Number of insts issued each cycle (Count)
system.cpu.numIssuedDist::5                    918302     15.10%     82.49% # Number of insts issued each cycle (Count)
system.cpu.numIssuedDist::6                    659082     10.84%     93.33% # Number of insts issued each cycle (Count)
system.cpu.numIssuedDist::7                    262800      4.32%     97.65% # Number of insts issued each cycle (Count)
system.cpu.numIssuedDist::8                    142829      2.35%    100.00% # Number of insts issued each cycle (Count)
system.cpu.numIssuedDist::overflows                 0      0.00%    100.00% # Number of insts issued each cycle (Count)
system.cpu.numIssuedDist::min_value                 0                       # Number of insts issued each cycle (Count)
system.cpu.numIssuedDist::max_value                 8                       # Number of insts issued each cycle (Count)
system.cpu.numIssuedDist::total               6081395                       # Number of insts issued each cycle (Count)
system.cpu.statFuBusy::No_OpClass                   0      0.00%      0.00% # attempts to use FU when none available (Count)
system.cpu.statFuBusy::IntAlu                  241946     71.39%     71.39% # attempts to use FU when none available (Count)
system.cpu.statFuBusy::IntMult                      0      0.00%     71.39% # attempts to use FU when none available (Count)
system.cpu.statFuBusy::IntDiv                       0      0.00%     71.39% # attempts to use FU when none available (Count)
system.cpu.statFuBusy::FloatAdd                     0      0.00%     71.39% # attempts to use FU when none available (Count)
system.cpu.statFuBusy::FloatCmp                     0      0.00%     71.39% # attempts to use FU when none available (Count)
system.cpu.statFuBusy::FloatCvt                     0      0.00%     71.39% # attempts to use FU when none available (Count)
system.cpu.statFuBusy::FloatMult                    0      0.00%     71.39% # attempts to use FU when none available (Count)
system.cpu.statFuBusy::FloatMultAcc                 0      0.00%     71.39% # attempts to use FU when none available (Count)
system.cpu.statFuBusy::FloatDiv                     0      0.00%     71.39% # attempts to use FU when none available (Count)
system.cpu.statFuBusy::FloatMisc                    0      0.00%     71.39% # attempts to use FU when none available (Count)
system.cpu.statFuBusy::FloatSqrt                    0      0.00%     71.39% # attempts to use FU when none available (Count)
system.cpu.statFuBusy::SimdAdd                      0      0.00%     71.39% # attempts to use FU when none available (Count)
system.cpu.statFuBusy::SimdAddAcc                   0      0.00%     71.39% # attempts to use FU when none available (Count)
system.cpu.statFuBusy::SimdAlu                      0      0.00%     71.39% # attempts to use FU when none available (Count)
system.cpu.statFuBusy::SimdCmp                      0      0.00%     71.39% # attempts to use FU when none available (Count)
system.cpu.statFuBusy::SimdCvt                      0      0.00%     71.39% # attempts to use FU when none available (Count)
system.cpu.statFuBusy::SimdMisc                     0      0.00%     71.39% # attempts to use FU when none available (Count)
system.cpu.statFuBusy::SimdMult                     0      0.00%     71.39% # attempts to use FU when none available (Count)
system.cpu.statFuBusy::SimdMultAcc                  0      0.00%     71.39% # attempts to use FU when none available (Count)
system.cpu.statFuBusy::SimdShift                    0      0.00%     71.39% # attempts to use FU when none available (Count)
system.cpu.statFuBusy::SimdShiftAcc                 0      0.00%     71.39% # attempts to use FU when none available (Count)
system.cpu.statFuBusy::SimdDiv                      0      0.00%     71.39% # attempts to use FU when none available (Count)
system.cpu.statFuBusy::SimdSqrt                     0      0.00%     71.39% # attempts to use FU when none available (Count)
system.cpu.statFuBusy::SimdFloatAdd                 0      0.00%     71.39% # attempts to use FU when none available (Count)
system.cpu.statFuBusy::SimdFloatAlu                 0      0.00%     71.39% # attempts to use FU when none available (Count)
system.cpu.statFuBusy::SimdFloatCmp                 0      0.00%     71.39% # attempts to use FU when none available (Count)
system.cpu.statFuBusy::SimdFloatCvt                 0      0.00%     71.39% # attempts to use FU when none available (Count)
system.cpu.statFuBusy::SimdFloatDiv                 0      0.00%     71.39% # attempts to use FU when none available (Count)
system.cpu.statFuBusy::SimdFloatMisc                0      0.00%     71.39% # attempts to use FU when none available (Count)
system.cpu.statFuBusy::SimdFloatMult                0      0.00%     71.39% # attempts to use FU when none available (Count)
system.cpu.statFuBusy::SimdFloatMultAcc             0      0.00%     71.39% # attempts to use FU when none available (Count)
system.cpu.statFuBusy::SimdFloatSqrt                0      0.00%     71.39% # attempts to use FU when none available (Count)
system.cpu.statFuBusy::SimdReduceAdd                0      0.00%     71.39% # attempts to use FU when none available (Count)
system.cpu.statFuBusy::SimdReduceAlu                0      0.00%     71.39% # attempts to use FU when none available (Count)
system.cpu.statFuBusy::SimdReduceCmp                0      0.00%     71.39% # attempts to use FU when none available (Count)
system.cpu.statFuBusy::SimdFloatReduceAdd            0      0.00%     71.39% # attempts to use FU when none available (Count)
system.cpu.statFuBusy::SimdFloatReduceCmp            0      0.00%     71.39% # attempts to use FU when none available (Count)
system.cpu.statFuBusy::SimdAes                      0      0.00%     71.39% # attempts to use FU when none available (Count)
system.cpu.statFuBusy::SimdAesMix                   0      0.00%     71.39% # attempts to use FU when none available (Count)
system.cpu.statFuBusy::SimdSha1Hash                 0      0.00%     71.39% # attempts to use FU when none available (Count)
system.cpu.statFuBusy::SimdSha1Hash2                0      0.00%     71.39% # attempts to use FU when none available (Count)
system.cpu.statFuBusy::SimdSha256Hash               0      0.00%     71.39% # attempts to use FU when none available (Count)
system.cpu.statFuBusy::SimdSha256Hash2              0      0.00%     71.39% # attempts to use FU when none available (Count)
system.cpu.statFuBusy::SimdShaSigma2                0      0.00%     71.39% # attempts to use FU when none available (Count)
system.cpu.statFuBusy::SimdShaSigma3                0      0.00%     71.39% # attempts to use FU when none available (Count)
system.cpu.statFuBusy::SimdPredAlu                  0      0.00%     71.39% # attempts to use FU when none available (Count)
system.cpu.statFuBusy::MemRead                  79622     23.49%     94.88% # attempts to use FU when none available (Count)
system.cpu.statFuBusy::MemWrite                 17360      5.12%    100.00% # attempts to use FU when none available (Count)
system.cpu.statFuBusy::FloatMemRead                 0      0.00%    100.00% # attempts to use FU when none available (Count)
system.cpu.statFuBusy::FloatMemWrite                0      0.00%    100.00% # attempts to use FU when none available (Count)
system.cpu.statFuBusy::IprAccess                    0      0.00%    100.00% # attempts to use FU when none available (Count)
system.cpu.statFuBusy::InstPrefetch                 0      0.00%    100.00% # attempts to use FU when none available (Count)
system.cpu.statIssuedInstType_0::No_OpClass          262      0.00%      0.00% # Number of instructions issued per FU type, per thread (Count)
system.cpu.statIssuedInstType_0::IntAlu      15187523     70.40%     70.40% # Number of instructions issued per FU type, per thread (Count)
system.cpu.statIssuedInstType_0::IntMult           63      0.00%     70.40% # Number of instructions issued per FU type, per thread (Count)
system.cpu.statIssuedInstType_0::IntDiv            31      0.00%     70.40% # Number of instructions issued per FU type, per thread (Count)
system.cpu.statIssuedInstType_0::FloatAdd            0      0.00%     70.40% # Number of instructions issued per FU type, per thread (Count)
system.cpu.statIssuedInstType_0::FloatCmp            0      0.00%     70.40% # Number of instructions issued per FU type, per thread (Count)
system.cpu.statIssuedInstType_0::FloatCvt            0      0.00%     70.40% # Number of instructions issued per FU type, per thread (Count)
system.cpu.statIssuedInstType_0::FloatMult            0      0.00%     70.40% # Number of instructions issued per FU type, per thread (Count)
system.cpu.statIssuedInstType_0::FloatMultAcc            0      0.00%     70.40% # Number of instructions issued per FU type, per thread (Count)
system.cpu.statIssuedInstType_0::FloatDiv            0      0.00%     70.40% # Number of instructions issued per FU type, per thread (Count)
system.cpu.statIssuedInstType_0::FloatMisc            0      0.00%     70.40% # Number of instructions issued per FU type, per thread (Count)
system.cpu.statIssuedInstType_0::FloatSqrt            0      0.00%     70.40% # Number of instructions issued per FU type, per thread (Count)
system.cpu.statIssuedInstType_0::SimdAdd            0      0.00%     70.40% # Number of instructions issued per FU type, per thread (Count)
system.cpu.statIssuedInstType_0::SimdAddAcc            0      0.00%     70.40% # Number of instructions issued per FU type, per thread (Count)
system.cpu.statIssuedInstType_0::SimdAlu            0      0.00%     70.40% # Number of instructions issued per FU type, per thread (Count)
system.cpu.statIssuedInstType_0::SimdCmp            0      0.00%     70.40% # Number of instructions issued per FU type, per thread (Count)
system.cpu.statIssuedInstType_0::SimdCvt            0      0.00%     70.40% # Number of instructions issued per FU type, per thread (Count)
system.cpu.statIssuedInstType_0::SimdMisc            0      0.00%     70.40% # Number of instructions issued per FU type, per thread (Count)
system.cpu.statIssuedInstType_0::SimdMult            0      0.00%     70.40% # Number of instructions issued per FU type, per thread (Count)
system.cpu.statIssuedInstType_0::SimdMultAcc            0      0.00%     70.40% # Number of instructions issued per FU type, per thread (Count)
system.cpu.statIssuedInstType_0::SimdShift            0      0.00%     70.40% # Number of instructions issued per FU type, per thread (Count)
system.cpu.statIssuedInstType_0::SimdShiftAcc            0      0.00%     70.40% # Number of instructions issued per FU type, per thread (Count)
system.cpu.statIssuedInstType_0::SimdDiv            0      0.00%     70.40% # Number of instructions issued per FU type, per thread (Count)
system.cpu.statIssuedInstType_0::SimdSqrt            0      0.00%     70.40% # Number of instructions issued per FU type, per thread (Count)
system.cpu.statIssuedInstType_0::SimdFloatAdd            0      0.00%     70.40% # Number of instructions issued per FU type, per thread (Count)
system.cpu.statIssuedInstType_0::SimdFloatAlu            0      0.00%     70.40% # Number of instructions issued per FU type, per thread (Count)
system.cpu.statIssuedInstType_0::SimdFloatCmp            0      0.00%     70.40% # Number of instructions issued per FU type, per thread (Count)
system.cpu.statIssuedInstType_0::SimdFloatCvt            0      0.00%     70.40% # Number of instructions issued per FU type, per thread (Count)
system.cpu.statIssuedInstType_0::SimdFloatDiv            0      0.00%     70.40% # Number of instructions issued per FU type, per thread (Count)
system.cpu.statIssuedInstType_0::SimdFloatMisc            0      0.00%     70.40% # Number of instructions issued per FU type, per thread (Count)
system.cpu.statIssuedInstType_0::SimdFloatMult            0      0.00%     70.40% # Number of instructions issued per FU type, per thread (Count)
system.cpu.statIssuedInstType_0::SimdFloatMultAcc            0      0.00%     70.40% # Number of instructions issued per FU type, per thread (Count)
system.cpu.statIssuedInstType_0::SimdFloatSqrt            0      0.00%     70.40% # Number of instructions issued per FU type, per thread (Count)
system.cpu.statIssuedInstType_0::SimdReduceAdd            0      0.00%     70.40% # Number of instructions issued per FU type, per thread (Count)
system.cpu.statIssuedInstType_0::SimdReduceAlu            0      0.00%     70.40% # Number of instructions issued per FU type, per thread (Count)
system.cpu.statIssuedInstType_0::SimdReduceCmp            0      0.00%     70.40% # Number of instructions issued per FU type, per thread (Count)
system.cpu.statIssuedInstType_0::SimdFloatReduceAdd            0      0.00%     70.40% # Number of instructions issued per FU type, per thread (Count)
system.cpu.statIssuedInstType_0::SimdFloatReduceCmp            0      0.00%     70.40% # Number of instructions issued per FU type, per thread (Count)
system.cpu.statIssuedInstType_0::SimdAes            0      0.00%     70.40% # Number of instructions issued per FU type, per thread (Count)
system.cpu.statIssuedInstType_0::SimdAesMix            0      0.00%     70.40% # Number of instructions issued per FU type, per thread (Count)
system.cpu.statIssuedInstType_0::SimdSha1Hash            0      0.00%     70.40% # Number of instructions issued per FU type, per thread (Count)
system.cpu.statIssuedInstType_0::SimdSha1Hash2            0      0.00%     70.40% # Number of instructions issued per FU type, per thread (Count)
system.cpu.statIssuedInstType_0::SimdSha256Hash            0      0.00%     70.40% # Number of instructions issued per FU type, per thread (Count)
system.cpu.statIssuedInstType_0::SimdSha256Hash2            0      0.00%     70.40% # Number of instructions issued per FU type, per thread (Count)
system.cpu.statIssuedInstType_0::SimdShaSigma2            0      0.00%     70.40% # Number of instructions issued per FU type, per thread (Count)
system.cpu.statIssuedInstType_0::SimdShaSigma3            0      0.00%     70.40% # Number of instructions issued per FU type, per thread (Count)
system.cpu.statIssuedInstType_0::SimdPredAlu            0      0.00%     70.40% # Number of instructions issued per FU type, per thread (Count)
system.cpu.statIssuedInstType_0::MemRead      3825926     17.73%     88.14% # Number of instructions issued per FU type, per thread (Count)
system.cpu.statIssuedInstType_0::MemWrite      2559414     11.86%    100.00% # Number of instructions issued per FU type, per thread (Count)
system.cpu.statIssuedInstType_0::FloatMemRead            0      0.00%    100.00% # Number of instructions issued per FU type, per thread (Count)
system.cpu.statIssuedInstType_0::FloatMemWrite            0      0.00%    100.00% # Number of instructions issued per FU type, per thread (Count)
system.cpu.statIssuedInstType_0::IprAccess            0      0.00%    100.00% # Number of instructions issued per FU type, per thread (Count)
system.cpu.statIssuedInstType_0::InstPrefetch            0      0.00%    100.00% # Number of instructions issued per FU type, per thread (Count)
system.cpu.statIssuedInstType_0::total       21573219                       # Number of instructions issued per FU type, per thread (Count)
system.cpu.issueRate                         3.509625                       # Inst issue rate ((Count/Cycle))
system.cpu.fuBusy                              338928                       # FU busy when requested (Count)
system.cpu.fuBusyRate                        0.015711                       # FU busy rate (busy events/executed inst) ((Count/Count))
system.cpu.intInstQueueReads                 49567732                       # Number of integer instruction queue reads (Count)
system.cpu.intInstQueueWrites                22368952                       # Number of integer instruction queue writes (Count)
system.cpu.intInstQueueWakeupAccesses        21507085                       # Number of integer instruction queue wakeup accesses (Count)
system.cpu.fpInstQueueReads                         0                       # Number of floating instruction queue reads (Count)
system.cpu.fpInstQueueWrites                        0                       # Number of floating instruction queue writes (Count)
system.cpu.fpInstQueueWakeupAccesses                0                       # Number of floating instruction queue wakeup accesses (Count)
system.cpu.vecInstQueueReads                        0                       # Number of vector instruction queue reads (Count)
system.cpu.vecInstQueueWrites                       0                       # Number of vector instruction queue writes (Count)
system.cpu.vecInstQueueWakeupAccesses               0                       # Number of vector instruction queue wakeup accesses (Count)
system.cpu.intAluAccesses                    21911885                       # Number of integer alu accesses (Count)
system.cpu.fpAluAccesses                            0                       # Number of floating point alu accesses (Count)
system.cpu.vecAluAccesses                           0                       # Number of vector alu accesses (Count)
system.cpu.idleCycles                               0                       # Number of cycles IEW is idle (Cycle)
system.cpu.squashCycles                         17625                       # Number of cycles IEW is squashing (Cycle)
system.cpu.blockCycles                          85423                       # Number of cycles IEW is blocking (Cycle)
system.cpu.unblockCycles                         3024                       # Number of cycles IEW is unblocking (Cycle)
system.cpu.dispatchedInsts                   21738438                       # Number of instructions dispatched to IQ (Count)
system.cpu.dispSquashedInsts                      128                       # Number of squashed instructions skipped by dispatch (Count)
system.cpu.dispLoadInsts                      3854683                       # Number of dispatched load instructions (Count)
system.cpu.dispStoreInsts                     2609367                       # Number of dispatched store instructions (Count)
system.cpu.dispNonSpecInsts                       124                       # Number of dispatched non-speculative instructions (Count)
system.cpu.iqFullEvents                           422                       # Number of times the IQ has become full, causing a stall (Count)
system.cpu.lsqFullEvents                         2432                       # Number of times the LSQ has become full, causing a stall (Count)
system.cpu.memOrderViolationEvents                550                       # Number of memory order violations (Count)
system.cpu.predictedTakenIncorrect               5789                       # Number of branches that were predicted taken incorrectly (Count)
system.cpu.predictedNotTakenIncorrect           12465                       # Number of branches that were predicted not taken incorrectly (Count)
system.cpu.branchMispredicts                    18254                       # Number of branch mispredicts detected at execute (Count)
system.cpu.numInsts                          21530728                       # Number of executed instructions (Count)
system.cpu.numLoadInsts                       3821372                       # Number of load instructions executed (Count)
system.cpu.numSquashedInsts                     42491                       # Number of squashed instructions skipped in execute (Count)
system.cpu.numSwp                                   0                       # Number of swp insts executed (Count)
system.cpu.numNop                                   0                       # Number of nop insts executed (Count)
system.cpu.numRefs                            6363273                       # Number of memory reference insts executed (Count)
system.cpu.numBranches                        2383514                       # Number of branches executed (Count)
system.cpu.numStoreInsts                      2541901                       # Number of stores executed (Count)
system.cpu.numRate                           3.502712                       # Inst execution rate ((Count/Cycle))
system.cpu.instsToCommit                     21520997                       # Cumulative count of insts sent to commit (Count)
system.cpu.writebackCount                    21507085                       # Cumulative count of insts written-back (Count)
system.cpu.producerInst                      14685376                       # Number of instructions producing a value (Count)
system.cpu.consumerInst                      24748061                       # Number of instructions consuming a value (Count)
system.cpu.wbRate                            3.498866                       # Insts written-back per cycle ((Count/Cycle))
system.cpu.wbFanout                          0.593395                       # Average fanout of values written-back ((Count/Count))
system.cpu.timesIdled                             568                       # Number of times that the entire CPU went into an idle state and unscheduled itself (Count)
system.cpu.idleCycles                           65478                       # Total number of cycles that the CPU has spent unscheduled due to idling (Cycle)
system.cpu.committedInsts                    12198815                       # Number of Instructions Simulated (Count)
system.cpu.committedOps                      21108420                       # Number of Ops (including micro ops) Simulated (Count)
system.cpu.cpi                               0.503891                       # CPI: Cycles Per Instruction ((Cycle/Count))
system.cpu.totalCpi                          0.503891                       # CPI: Total CPI of All Threads ((Cycle/Count))
system.cpu.ipc                               1.984556                       # IPC: Instructions Per Cycle ((Count/Cycle))
system.cpu.totalIpc                          1.984556                       # IPC: Total IPC of All Threads ((Count/Cycle))
system.cpu.intRegfileReads                   34594786                       # Number of integer regfile reads (Count)
system.cpu.intRegfileWrites                  16593461                       # Number of integer regfile writes (Count)
system.cpu.ccRegfileReads                     9193660                       # number of cc regfile reads (Count)
system.cpu.ccRegfileWrites                    7071142                       # number of cc regfile writes (Count)
system.cpu.miscRegfileReads                  10480354                       # number of misc regfile reads (Count)
system.cpu.miscRegfileWrites                        6                       # number of misc regfile writes (Count)
system.cpu.MemDepUnit__0.insertedLoads        3854683                       # Number of loads inserted to the mem dependence unit. (Count)
system.cpu.MemDepUnit__0.insertedStores       2609367                       # Number of stores inserted to the mem dependence unit. (Count)
system.cpu.MemDepUnit__0.conflictingLoads       569393                       # Number of conflicting loads. (Count)
system.cpu.MemDepUnit__0.conflictingStores       191492                       # Number of conflicting stores. (Count)
system.cpu.MemDepUnit__1.insertedLoads              0                       # Number of loads inserted to the mem dependence unit. (Count)
system.cpu.MemDepUnit__1.insertedStores             0                       # Number of stores inserted to the mem dependence unit. (Count)
system.cpu.MemDepUnit__1.conflictingLoads            0                       # Number of conflicting loads. (Count)
system.cpu.MemDepUnit__1.conflictingStores            0                       # Number of conflicting stores. (Count)
system.cpu.MemDepUnit__2.insertedLoads              0                       # Number of loads inserted to the mem dependence unit. (Count)
system.cpu.MemDepUnit__2.insertedStores             0                       # Number of stores inserted to the mem dependence unit. (Count)
system.cpu.MemDepUnit__2.conflictingLoads            0                       # Number of conflicting loads. (Count)
system.cpu.MemDepUnit__2.conflictingStores            0                       # Number of conflicting stores. (Count)
system.cpu.MemDepUnit__3.insertedLoads              0                       # Number of loads inserted to the mem dependence unit. (Count)
system.cpu.MemDepUnit__3.insertedStores             0                       # Number of stores inserted to the mem dependence unit. (Count)
system.cpu.MemDepUnit__3.conflictingLoads            0                       # Number of conflicting loads. (Count)
system.cpu.MemDepUnit__3.conflictingStores            0                       # Number of conflicting stores. (Count)
system.cpu.branchPred.lookups                 2428058                       # Number of BP lookups (Count)
system.cpu.branchPred.condPredicted           1185304                       # Number of conditional branches predicted (Count)
system.cpu.branchPred.condIncorrect             17898                       # Number of conditional branches incorrect (Count)
system.cpu.branchPred.BTBLookups              1073837                       # Number of BTB lookups (Count)
system.cpu.branchPred.BTBHits                 1069900                       # Number of BTB hits (Count)
system.cpu.branchPred.BTBHitRatio            0.996334                       # BTB Hit Ratio (Ratio)
system.cpu.branchPred.RASUsed                  520553                       # Number of times the RAS was used to get a target. (Count)
system.cpu.branchPred.RASIncorrect                 20                       # Number of incorrect RAS predictions. (Count)
system.cpu.branchPred.indirectLookups          227954                       # Number of indirect predictor lookups. (Count)
system.cpu.branchPred.indirectHits             227276                       # Number of indirect target hits. (Count)
system.cpu.branchPred.indirectMisses              678                       # Number of indirect misses. (Count)
system.cpu.branchPred.indirectMispredicted          240                       # Number of mispredicted indirect branches. (Count)
system.cpu.commit.commitSquashedInsts          629341                       # The number of squashed insts skipped by commit (Count)
system.cpu.commit.commitNonSpecStalls               7                       # The number of times commit has been forced to stall to communicate backwards (Count)
system.cpu.commit.branchMispredicts             17168                       # The number of times a branch was mispredicted (Count)
system.cpu.commit.numCommittedDist::samples      5991679                       # Number of insts commited each cycle (Count)
system.cpu.commit.numCommittedDist::mean     3.522956                       # Number of insts commited each cycle (Count)
system.cpu.commit.numCommittedDist::stdev     2.932838                       # Number of insts commited each cycle (Count)
system.cpu.commit.numCommittedDist::underflows            0      0.00%      0.00% # Number of insts commited each cycle (Count)
system.cpu.commit.numCommittedDist::0         1030324     17.20%     17.20% # Number of insts commited each cycle (Count)
system.cpu.commit.numCommittedDist::1         1178351     19.67%     36.86% # Number of insts commited each cycle (Count)
system.cpu.commit.numCommittedDist::2          473499      7.90%     44.76% # Number of insts commited each cycle (Count)
system.cpu.commit.numCommittedDist::3          802533     13.39%     58.16% # Number of insts commited each cycle (Count)
system.cpu.commit.numCommittedDist::4          416812      6.96%     65.12% # Number of insts commited each cycle (Count)
system.cpu.commit.numCommittedDist::5          300125      5.01%     70.12% # Number of insts commited each cycle (Count)
system.cpu.commit.numCommittedDist::6          281202      4.69%     74.82% # Number of insts commited each cycle (Count)
system.cpu.commit.numCommittedDist::7          350277      5.85%     80.66% # Number of insts commited each cycle (Count)
system.cpu.commit.numCommittedDist::8         1158556     19.34%    100.00% # Number of insts commited each cycle (Count)
system.cpu.commit.numCommittedDist::overflows            0      0.00%    100.00% # Number of insts commited each cycle (Count)
system.cpu.commit.numCommittedDist::min_value            0                       # Number of insts commited each cycle (Count)
system.cpu.commit.numCommittedDist::max_value            8                       # Number of insts commited each cycle (Count)
system.cpu.commit.numCommittedDist::total      5991679                       # Number of insts commited each cycle (Count)
system.cpu.commit.instsCommitted             12198815                       # Number of instructions committed (Count)
system.cpu.commit.opsCommitted               21108420                       # Number of ops (including micro ops) committed (Count)
system.cpu.commit.memRefs                     6204840                       # Number of memory references committed (Count)
system.cpu.commit.loads                       3739631                       # Number of loads committed (Count)
system.cpu.commit.amos                              0                       # Number of atomic instructions committed (Count)
system.cpu.commit.membars                           2                       # Number of memory barriers committed (Count)
system.cpu.commit.branches                    2348513                       # Number of branches committed (Count)
system.cpu.commit.vectorInstructions                0                       # Number of committed Vector instructions. (Count)
system.cpu.commit.floating                          0                       # Number of committed floating point instructions. (Count)
system.cpu.commit.integer                    21107084                       # Number of committed integer instructions. (Count)
system.cpu.commit.functionCalls                513531                       # Number of function calls committed. (Count)
system.cpu.commit.committedInstType_0::No_OpClass           29      0.00%      0.00% # Class of committed instruction (Count)
system.cpu.commit.committedInstType_0::IntAlu     14903483     70.60%     70.60% # Class of committed instruction (Count)
system.cpu.commit.committedInstType_0::IntMult           47      0.00%     70.60% # Class of committed instruction (Count)
system.cpu.commit.committedInstType_0::IntDiv           21      0.00%     70.60% # Class of committed instruction (Count)
system.cpu.commit.committedInstType_0::FloatAdd            0      0.00%     70.60% # Class of committed instruction (Count)
system.cpu.commit.committedInstType_0::FloatCmp            0      0.00%     70.60% # Class of committed instruction (Count)
system.cpu.commit.committedInstType_0::FloatCvt            0      0.00%     70.60% # Class of committed instruction (Count)
system.cpu.commit.committedInstType_0::FloatMult            0      0.00%     70.60% # Class of committed instruction (Count)
system.cpu.commit.committedInstType_0::FloatMultAcc            0      0.00%     70.60% # Class of committed instruction (Count)
system.cpu.commit.committedInstType_0::FloatDiv            0      0.00%     70.60% # Class of committed instruction (Count)
system.cpu.commit.committedInstType_0::FloatMisc            0      0.00%     70.60% # Class of committed instruction (Count)
system.cpu.commit.committedInstType_0::FloatSqrt            0      0.00%     70.60% # Class of committed instruction (Count)
system.cpu.commit.committedInstType_0::SimdAdd            0      0.00%     70.60% # Class of committed instruction (Count)
system.cpu.commit.committedInstType_0::SimdAddAcc            0      0.00%     70.60% # Class of committed instruction (Count)
system.cpu.commit.committedInstType_0::SimdAlu            0      0.00%     70.60% # Class of committed instruction (Count)
system.cpu.commit.committedInstType_0::SimdCmp            0      0.00%     70.60% # Class of committed instruction (Count)
system.cpu.commit.committedInstType_0::SimdCvt            0      0.00%     70.60% # Class of committed instruction (Count)
system.cpu.commit.committedInstType_0::SimdMisc            0      0.00%     70.60% # Class of committed instruction (Count)
system.cpu.commit.committedInstType_0::SimdMult            0      0.00%     70.60% # Class of committed instruction (Count)
system.cpu.commit.committedInstType_0::SimdMultAcc            0      0.00%     70.60% # Class of committed instruction (Count)
system.cpu.commit.committedInstType_0::SimdShift            0      0.00%     70.60% # Class of committed instruction (Count)
system.cpu.commit.committedInstType_0::SimdShiftAcc            0      0.00%     70.60% # Class of committed instruction (Count)
system.cpu.commit.committedInstType_0::SimdDiv            0      0.00%     70.60% # Class of committed instruction (Count)
system.cpu.commit.committedInstType_0::SimdSqrt            0      0.00%     70.60% # Class of committed instruction (Count)
system.cpu.commit.committedInstType_0::SimdFloatAdd            0      0.00%     70.60% # Class of committed instruction (Count)
system.cpu.commit.committedInstType_0::SimdFloatAlu            0      0.00%     70.60% # Class of committed instruction (Count)
system.cpu.commit.committedInstType_0::SimdFloatCmp            0      0.00%     70.60% # Class of committed instruction (Count)
system.cpu.commit.committedInstType_0::SimdFloatCvt            0      0.00%     70.60% # Class of committed instruction (Count)
system.cpu.commit.committedInstType_0::SimdFloatDiv            0      0.00%     70.60% # Class of committed instruction (Count)
system.cpu.commit.committedInstType_0::SimdFloatMisc            0      0.00%     70.60% # Class of committed instruction (Count)
system.cpu.commit.committedInstType_0::SimdFloatMult            0      0.00%     70.60% # Class of committed instruction (Count)
system.cpu.commit.committedInstType_0::SimdFloatMultAcc            0      0.00%     70.60% # Class of committed instruction (Count)
system.cpu.commit.committedInstType_0::SimdFloatSqrt            0      0.00%     70.60% # Class of committed instruction (Count)
system.cpu.commit.committedInstType_0::SimdReduceAdd            0      0.00%     70.60% # Class of committed instruction (Count)
system.cpu.commit.committedInstType_0::SimdReduceAlu            0      0.00%     70.60% # Class of committed instruction (Count)
system.cpu.commit.committedInstType_0::SimdReduceCmp            0      0.00%     70.60% # Class of committed instruction (Count)
system.cpu.commit.committedInstType_0::SimdFloatReduceAdd            0      0.00%     70.60% # Class of committed instruction (Count)
system.cpu.commit.committedInstType_0::SimdFloatReduceCmp            0      0.00%     70.60% # Class of committed instruction (Count)
system.cpu.commit.committedInstType_0::SimdAes            0      0.00%     70.60% # Class of committed instruction (Count)
system.cpu.commit.committedInstType_0::SimdAesMix            0      0.00%     70.60% # Class of committed instruction (Count)
system.cpu.commit.committedInstType_0::SimdSha1Hash            0      0.00%     70.60% # Class of committed instruction (Count)
system.cpu.commit.committedInstType_0::SimdSha1Hash2            0      0.00%     70.60% # Class of committed instruction (Count)
system.cpu.commit.committedInstType_0::SimdSha256Hash            0      0.00%     70.60% # Class of committed instruction (Count)
system.cpu.commit.committedInstType_0::SimdSha256Hash2            0      0.00%     70.60% # Class of committed instruction (Count)
system.cpu.commit.committedInstType_0::SimdShaSigma2            0      0.00%     70.60% # Class of committed instruction (Count)
system.cpu.commit.committedInstType_0::SimdShaSigma3            0      0.00%     70.60% # Class of committed instruction (Count)
system.cpu.commit.committedInstType_0::SimdPredAlu            0      0.00%     70.60% # Class of committed instruction (Count)
system.cpu.commit.committedInstType_0::MemRead      3739631     17.72%     88.32% # Class of committed instruction (Count)
system.cpu.commit.committedInstType_0::MemWrite      2465209     11.68%    100.00% # Class of committed instruction (Count)
system.cpu.commit.committedInstType_0::FloatMemRead            0      0.00%    100.00% # Class of committed instruction (Count)
system.cpu.commit.committedInstType_0::FloatMemWrite            0      0.00%    100.00% # Class of committed instruction (Count)
system.cpu.commit.committedInstType_0::IprAccess            0      0.00%    100.00% # Class of committed instruction (Count)
system.cpu.commit.committedInstType_0::InstPrefetch            0      0.00%    100.00% # Class of committed instruction (Count)
system.cpu.commit.committedInstType_0::total     21108420                       # Class of committed instruction (Count)
system.cpu.commit.commitEligibleSamples       1158556                       # number cycles where commit BW limit reached (Cycle)
system.cpu.dcache.demandHits::cpu.data        4045607                       # number of demand (read+write) hits (Count)
system.cpu.dcache.demandHits::total           4045607                       # number of demand (read+write) hits (Count)
system.cpu.dcache.overallHits::cpu.data       4045607                       # number of overall hits (Count)
system.cpu.dcache.overallHits::total          4045607                       # number of overall hits (Count)
system.cpu.dcache.demandMisses::cpu.data        27616                       # number of demand (read+write) misses (Count)
system.cpu.dcache.demandMisses::total           27616                       # number of demand (read+write) misses (Count)
system.cpu.dcache.overallMisses::cpu.data        27616                       # number of overall misses (Count)
system.cpu.dcache.overallMisses::total          27616                       # number of overall misses (Count)
system.cpu.dcache.demandMissLatency::cpu.data    756611499                       # number of demand (read+write) miss ticks (Tick)
system.cpu.dcache.demandMissLatency::total    756611499                       # number of demand (read+write) miss ticks (Tick)
system.cpu.dcache.overallMissLatency::cpu.data    756611499                       # number of overall miss ticks (Tick)
system.cpu.dcache.overallMissLatency::total    756611499                       # number of overall miss ticks (Tick)
system.cpu.dcache.demandAccesses::cpu.data      4073223                       # number of demand (read+write) accesses (Count)
system.cpu.dcache.demandAccesses::total       4073223                       # number of demand (read+write) accesses (Count)
system.cpu.dcache.overallAccesses::cpu.data      4073223                       # number of overall (read+write) accesses (Count)
system.cpu.dcache.overallAccesses::total      4073223                       # number of overall (read+write) accesses (Count)
system.cpu.dcache.demandMissRate::cpu.data     0.006780                       # miss rate for demand accesses (Ratio)
system.cpu.dcache.demandMissRate::total      0.006780                       # miss rate for demand accesses (Ratio)
system.cpu.dcache.overallMissRate::cpu.data     0.006780                       # miss rate for overall accesses (Ratio)
system.cpu.dcache.overallMissRate::total     0.006780                       # miss rate for overall accesses (Ratio)
system.cpu.dcache.demandAvgMissLatency::cpu.data 27397.577455                       # average overall miss latency ((Cycle/Count))
system.cpu.dcache.demandAvgMissLatency::total 27397.577455                       # average overall miss latency ((Cycle/Count))
system.cpu.dcache.overallAvgMissLatency::cpu.data 27397.577455                       # average overall miss latency ((Cycle/Count))
system.cpu.dcache.overallAvgMissLatency::total 27397.577455                       # average overall miss latency ((Cycle/Count))
system.cpu.dcache.blockedCycles::no_mshrs          282                       # number of cycles access was blocked (Cycle)
system.cpu.dcache.blockedCycles::no_targets            0                       # number of cycles access was blocked (Cycle)
system.cpu.dcache.blockedCauses::no_mshrs            7                       # number of times access was blocked (Count)
system.cpu.dcache.blockedCauses::no_targets            0                       # number of times access was blocked (Count)
system.cpu.dcache.avgBlocked::no_mshrs      40.285714                       # average number of cycles each access was blocked ((Cycle/Count))
system.cpu.dcache.avgBlocked::no_targets          nan                       # average number of cycles each access was blocked ((Cycle/Count))
system.cpu.dcache.writebacks::writebacks         2714                       # number of writebacks (Count)
system.cpu.dcache.writebacks::total              2714                       # number of writebacks (Count)
system.cpu.dcache.demandMshrHits::cpu.data         7956                       # number of demand (read+write) MSHR hits (Count)
system.cpu.dcache.demandMshrHits::total          7956                       # number of demand (read+write) MSHR hits (Count)
system.cpu.dcache.overallMshrHits::cpu.data         7956                       # number of overall MSHR hits (Count)
system.cpu.dcache.overallMshrHits::total         7956                       # number of overall MSHR hits (Count)
system.cpu.dcache.demandMshrMisses::cpu.data        19660                       # number of demand (read+write) MSHR misses (Count)
system.cpu.dcache.demandMshrMisses::total        19660                       # number of demand (read+write) MSHR misses (Count)
system.cpu.dcache.overallMshrMisses::cpu.data        19660                       # number of overall MSHR misses (Count)
system.cpu.dcache.overallMshrMisses::total        19660                       # number of overall MSHR misses (Count)
system.cpu.dcache.demandMshrMissLatency::cpu.data    409295999                       # number of demand (read+write) MSHR miss ticks (Tick)
system.cpu.dcache.demandMshrMissLatency::total    409295999                       # number of demand (read+write) MSHR miss ticks (Tick)
system.cpu.dcache.overallMshrMissLatency::cpu.data    409295999                       # number of overall MSHR miss ticks (Tick)
system.cpu.dcache.overallMshrMissLatency::total    409295999                       # number of overall MSHR miss ticks (Tick)
system.cpu.dcache.demandMshrMissRate::cpu.data     0.004827                       # mshr miss ratio for demand accesses (Ratio)
system.cpu.dcache.demandMshrMissRate::total     0.004827                       # mshr miss ratio for demand accesses (Ratio)
system.cpu.dcache.overallMshrMissRate::cpu.data     0.004827                       # mshr miss ratio for overall accesses (Ratio)
system.cpu.dcache.overallMshrMissRate::total     0.004827                       # mshr miss ratio for overall accesses (Ratio)
system.cpu.dcache.demandAvgMshrMissLatency::cpu.data 20818.718159                       # average overall mshr miss latency ((Cycle/Count))
system.cpu.dcache.demandAvgMshrMissLatency::total 20818.718159                       # average overall mshr miss latency ((Cycle/Count))
system.cpu.dcache.overallAvgMshrMissLatency::cpu.data 20818.718159                       # average overall mshr miss latency ((Cycle/Count))
system.cpu.dcache.overallAvgMshrMissLatency::total 20818.718159                       # average overall mshr miss latency ((Cycle/Count))
system.cpu.dcache.replacements                  19143                       # number of replacements (Count)
system.cpu.dcache.ReadReq.hits::cpu.data      1581166                       # number of ReadReq hits (Count)
system.cpu.dcache.ReadReq.hits::total         1581166                       # number of ReadReq hits (Count)
system.cpu.dcache.ReadReq.misses::cpu.data        26835                       # number of ReadReq misses (Count)
system.cpu.dcache.ReadReq.misses::total         26835                       # number of ReadReq misses (Count)
system.cpu.dcache.ReadReq.missLatency::cpu.data    709464500                       # number of ReadReq miss ticks (Tick)
system.cpu.dcache.ReadReq.missLatency::total    709464500                       # number of ReadReq miss ticks (Tick)
system.cpu.dcache.ReadReq.accesses::cpu.data      1608001                       # number of ReadReq accesses(hits+misses) (Count)
system.cpu.dcache.ReadReq.accesses::total      1608001                       # number of ReadReq accesses(hits+misses) (Count)
system.cpu.dcache.ReadReq.missRate::cpu.data     0.016688                       # miss rate for ReadReq accesses (Ratio)
system.cpu.dcache.ReadReq.missRate::total     0.016688                       # miss rate for ReadReq accesses (Ratio)
system.cpu.dcache.ReadReq.avgMissLatency::cpu.data 26438.028694                       # average ReadReq miss latency ((Tick/Count))
system.cpu.dcache.ReadReq.avgMissLatency::total 26438.028694                       # average ReadReq miss latency ((Tick/Count))
system.cpu.dcache.ReadReq.mshrHits::cpu.data         7955                       # number of ReadReq MSHR hits (Count)
system.cpu.dcache.ReadReq.mshrHits::total         7955                       # number of ReadReq MSHR hits (Count)
system.cpu.dcache.ReadReq.mshrMisses::cpu.data        18880                       # number of ReadReq MSHR misses (Count)
system.cpu.dcache.ReadReq.mshrMisses::total        18880                       # number of ReadReq MSHR misses (Count)
system.cpu.dcache.ReadReq.mshrMissLatency::cpu.data    362954000                       # number of ReadReq MSHR miss ticks (Tick)
system.cpu.dcache.ReadReq.mshrMissLatency::total    362954000                       # number of ReadReq MSHR miss ticks (Tick)
system.cpu.dcache.ReadReq.mshrMissRate::cpu.data     0.011741                       # mshr miss rate for ReadReq accesses (Ratio)
system.cpu.dcache.ReadReq.mshrMissRate::total     0.011741                       # mshr miss rate for ReadReq accesses (Ratio)
system.cpu.dcache.ReadReq.avgMshrMissLatency::cpu.data 19224.258475                       # average ReadReq mshr miss latency ((Tick/Count))
system.cpu.dcache.ReadReq.avgMshrMissLatency::total 19224.258475                       # average ReadReq mshr miss latency ((Tick/Count))
system.cpu.dcache.WriteReq.hits::cpu.data      2464441                       # number of WriteReq hits (Count)
system.cpu.dcache.WriteReq.hits::total        2464441                       # number of WriteReq hits (Count)
system.cpu.dcache.WriteReq.misses::cpu.data          781                       # number of WriteReq misses (Count)
system.cpu.dcache.WriteReq.misses::total          781                       # number of WriteReq misses (Count)
system.cpu.dcache.WriteReq.missLatency::cpu.data     47146999                       # number of WriteReq miss ticks (Tick)
system.cpu.dcache.WriteReq.missLatency::total     47146999                       # number of WriteReq miss ticks (Tick)
system.cpu.dcache.WriteReq.accesses::cpu.data      2465222                       # number of WriteReq accesses(hits+misses) (Count)
system.cpu.dcache.WriteReq.accesses::total      2465222                       # number of WriteReq accesses(hits+misses) (Count)
system.cpu.dcache.WriteReq.missRate::cpu.data     0.000317                       # miss rate for WriteReq accesses (Ratio)
system.cpu.dcache.WriteReq.missRate::total     0.000317                       # miss rate for WriteReq accesses (Ratio)
system.cpu.dcache.WriteReq.avgMissLatency::cpu.data 60367.476312                       # average WriteReq miss latency ((Tick/Count))
system.cpu.dcache.WriteReq.avgMissLatency::total 60367.476312                       # average WriteReq miss latency ((Tick/Count))
system.cpu.dcache.WriteReq.mshrHits::cpu.data            1                       # number of WriteReq MSHR hits (Count)
system.cpu.dcache.WriteReq.mshrHits::total            1                       # number of WriteReq MSHR hits (Count)
system.cpu.dcache.WriteReq.mshrMisses::cpu.data          780                       # number of WriteReq MSHR misses (Count)
system.cpu.dcache.WriteReq.mshrMisses::total          780                       # number of WriteReq MSHR misses (Count)
system.cpu.dcache.WriteReq.mshrMissLatency::cpu.data     46341999                       # number of WriteReq MSHR miss ticks (Tick)
system.cpu.dcache.WriteReq.mshrMissLatency::total     46341999                       # number of WriteReq MSHR miss ticks (Tick)
system.cpu.dcache.WriteReq.mshrMissRate::cpu.data     0.000316                       # mshr miss rate for WriteReq accesses (Ratio)
system.cpu.dcache.WriteReq.mshrMissRate::total     0.000316                       # mshr miss rate for WriteReq accesses (Ratio)
system.cpu.dcache.WriteReq.avgMshrMissLatency::cpu.data 59412.819231                       # average WriteReq mshr miss latency ((Tick/Count))
system.cpu.dcache.WriteReq.avgMshrMissLatency::total 59412.819231                       # average WriteReq mshr miss latency ((Tick/Count))
system.cpu.dcache.power_state.pwrStateResidencyTicks::UNDEFINED   3073436000                       # Cumulative time (in ticks) in various power states (Tick)
system.cpu.dcache.tags.tagsInUse           504.024518                       # Average ticks per tags in use ((Tick/Count))
system.cpu.dcache.tags.totalRefs              4065269                       # Total number of references to valid blocks. (Count)
system.cpu.dcache.tags.sampledRefs              19655                       # Sample count of references to valid blocks. (Count)
system.cpu.dcache.tags.avgRefs             206.831290                       # Average number of references to valid blocks. ((Count/Count))
system.cpu.dcache.tags.warmupTick              176500                       # The tick when the warmup percentage was hit. (Tick)
system.cpu.dcache.tags.occupancies::cpu.data   504.024518                       # Average occupied blocks per tick, per requestor ((Count/Tick))
system.cpu.dcache.tags.avgOccs::cpu.data     0.984423                       # Average percentage of cache occupancy ((Ratio/Tick))
system.cpu.dcache.tags.avgOccs::total        0.984423                       # Average percentage of cache occupancy ((Ratio/Tick))
system.cpu.dcache.tags.occupanciesTaskId::1024          512                       # Occupied blocks per task id (Count)
system.cpu.dcache.tags.ageTaskId_1024::0           68                       # Occupied blocks per task id, per block age (Count)
system.cpu.dcache.tags.ageTaskId_1024::1          436                       # Occupied blocks per task id, per block age (Count)
system.cpu.dcache.tags.ageTaskId_1024::2            3                       # Occupied blocks per task id, per block age (Count)
system.cpu.dcache.tags.ageTaskId_1024::3            5                       # Occupied blocks per task id, per block age (Count)
system.cpu.dcache.tags.ratioOccsTaskId::1024            1                       # Ratio of occupied blocks and all blocks, per task id (Ratio)
system.cpu.dcache.tags.tagAccesses           16312547                       # Number of tag accesses (Count)
system.cpu.dcache.tags.dataAccesses          16312547                       # Number of data accesses (Count)
system.cpu.dcache.tags.power_state.pwrStateResidencyTicks::UNDEFINED   3073436000                       # Cumulative time (in ticks) in various power states (Tick)
system.cpu.decode.idleCycles                  1688890                       # Number of cycles decode is idle (Cycle)
system.cpu.decode.blockedCycles                571974                       # Number of cycles decode is blocked (Cycle)
system.cpu.decode.runCycles                   3700987                       # Number of cycles decode is running (Cycle)
system.cpu.decode.unblockCycles                101919                       # Number of cycles decode is unblocking (Cycle)
system.cpu.decode.squashCycles                  17625                       # Number of cycles decode is squashing (Cycle)
system.cpu.decode.branchResolved              1062716                       # Number of times decode resolved a branch (Count)
system.cpu.decode.branchMispred                   884                       # Number of times decode detected a branch misprediction (Count)
system.cpu.decode.decodedInsts               21915401                       # Number of instructions handled by decode (Count)
system.cpu.decode.squashedInsts                  3665                       # Number of squashed instructions handled by decode (Count)
system.cpu.dtb_walker_cache.blockedCycles::no_mshrs            0                       # number of cycles access was blocked (Cycle)
system.cpu.dtb_walker_cache.blockedCycles::no_targets            0                       # number of cycles access was blocked (Cycle)
system.cpu.dtb_walker_cache.blockedCauses::no_mshrs            0                       # number of times access was blocked (Count)
system.cpu.dtb_walker_cache.blockedCauses::no_targets            0                       # number of times access was blocked (Count)
system.cpu.dtb_walker_cache.avgBlocked::no_mshrs          nan                       # average number of cycles each access was blocked ((Cycle/Count))
system.cpu.dtb_walker_cache.avgBlocked::no_targets          nan                       # average number of cycles each access was blocked ((Cycle/Count))
system.cpu.dtb_walker_cache.replacements            0                       # number of replacements (Count)
system.cpu.dtb_walker_cache.power_state.pwrStateResidencyTicks::UNDEFINED   3073436000                       # Cumulative time (in ticks) in various power states (Tick)
system.cpu.dtb_walker_cache.tags.tagsInUse            0                       # Average ticks per tags in use ((Tick/Count))
system.cpu.dtb_walker_cache.tags.totalRefs            0                       # Total number of references to valid blocks. (Count)
system.cpu.dtb_walker_cache.tags.sampledRefs            0                       # Sample count of references to valid blocks. (Count)
system.cpu.dtb_walker_cache.tags.avgRefs          nan                       # Average number of references to valid blocks. ((Count/Count))
system.cpu.dtb_walker_cache.tags.warmupTick            0                       # The tick when the warmup percentage was hit. (Tick)
system.cpu.dtb_walker_cache.tags.tagAccesses            0                       # Number of tag accesses (Count)
system.cpu.dtb_walker_cache.tags.dataAccesses            0                       # Number of data accesses (Count)
system.cpu.dtb_walker_cache.tags.power_state.pwrStateResidencyTicks::UNDEFINED   3073436000                       # Cumulative time (in ticks) in various power states (Tick)
system.cpu.fetch.icacheStallCycles            1822248                       # Number of cycles fetch is stalled on an Icache miss (Cycle)
system.cpu.fetch.insts                       12714826                       # Number of instructions fetch has processed (Count)
system.cpu.fetch.branches                     2428058                       # Number of branches that fetch encountered (Count)
system.cpu.fetch.predictedBranches            1817729                       # Number of branches that fetch has predicted taken (Count)
system.cpu.fetch.cycles                       4239359                       # Number of cycles fetch has run and was not squashing or blocked (Cycle)
system.cpu.fetch.squashCycles                   36960                       # Number of cycles fetch has spent squashing (Cycle)
system.cpu.fetch.miscStallCycles                  147                       # Number of cycles fetch has spent waiting on interrupts, or bad addresses, or out of MSHRs (Cycle)
system.cpu.fetch.pendingTrapStallCycles          1072                       # Number of stall cycles due to pending traps (Cycle)
system.cpu.fetch.pendingQuiesceStallCycles           33                       # Number of stall cycles due to pending quiesce instructions (Cycle)
system.cpu.fetch.icacheWaitRetryStallCycles           56                       # Number of stall cycles due to full MSHR (Cycle)
system.cpu.fetch.cacheLines                   1786058                       # Number of cache lines fetched (Count)
system.cpu.fetch.icacheSquashes                  7413                       # Number of outstanding Icache misses that were squashed (Count)
system.cpu.fetch.nisnDist::samples            6081395                       # Number of instructions fetched each cycle (Total) (Count)
system.cpu.fetch.nisnDist::mean              3.615045                       # Number of instructions fetched each cycle (Total) (Count)
system.cpu.fetch.nisnDist::stdev             3.401206                       # Number of instructions fetched each cycle (Total) (Count)
system.cpu.fetch.nisnDist::underflows               0      0.00%      0.00% # Number of instructions fetched each cycle (Total) (Count)
system.cpu.fetch.nisnDist::0                  2155189     35.44%     35.44% # Number of instructions fetched each cycle (Total) (Count)
system.cpu.fetch.nisnDist::1                   352484      5.80%     41.24% # Number of instructions fetched each cycle (Total) (Count)
system.cpu.fetch.nisnDist::2                   395377      6.50%     47.74% # Number of instructions fetched each cycle (Total) (Count)
system.cpu.fetch.nisnDist::3                   244434      4.02%     51.76% # Number of instructions fetched each cycle (Total) (Count)
system.cpu.fetch.nisnDist::4                   550918      9.06%     60.82% # Number of instructions fetched each cycle (Total) (Count)
system.cpu.fetch.nisnDist::5                   206840      3.40%     64.22% # Number of instructions fetched each cycle (Total) (Count)
system.cpu.fetch.nisnDist::6                   259614      4.27%     68.49% # Number of instructions fetched each cycle (Total) (Count)
system.cpu.fetch.nisnDist::7                    19890      0.33%     68.81% # Number of instructions fetched each cycle (Total) (Count)
system.cpu.fetch.nisnDist::8                  1896649     31.19%    100.00% # Number of instructions fetched each cycle (Total) (Count)
system.cpu.fetch.nisnDist::overflows                0      0.00%    100.00% # Number of instructions fetched each cycle (Total) (Count)
system.cpu.fetch.nisnDist::min_value                0                       # Number of instructions fetched each cycle (Total) (Count)
system.cpu.fetch.nisnDist::max_value                8                       # Number of instructions fetched each cycle (Total) (Count)
system.cpu.fetch.nisnDist::total              6081395                       # Number of instructions fetched each cycle (Total) (Count)
system.cpu.fetch.branchRate                  0.395007                       # Number of branch fetches per cycle (Ratio)
system.cpu.fetch.rate                        2.068503                       # Number of inst fetches per cycle ((Count/Cycle))
system.cpu.icache.demandHits::cpu.inst        1784836                       # number of demand (read+write) hits (Count)
system.cpu.icache.demandHits::total           1784836                       # number of demand (read+write) hits (Count)
system.cpu.icache.overallHits::cpu.inst       1784836                       # number of overall hits (Count)
system.cpu.icache.overallHits::total          1784836                       # number of overall hits (Count)
system.cpu.icache.demandMisses::cpu.inst         1222                       # number of demand (read+write) misses (Count)
system.cpu.icache.demandMisses::total            1222                       # number of demand (read+write) misses (Count)
system.cpu.icache.overallMisses::cpu.inst         1222                       # number of overall misses (Count)
system.cpu.icache.overallMisses::total           1222                       # number of overall misses (Count)
system.cpu.icache.demandMissLatency::cpu.inst     88636000                       # number of demand (read+write) miss ticks (Tick)
system.cpu.icache.demandMissLatency::total     88636000                       # number of demand (read+write) miss ticks (Tick)
system.cpu.icache.overallMissLatency::cpu.inst     88636000                       # number of overall miss ticks (Tick)
system.cpu.icache.overallMissLatency::total     88636000                       # number of overall miss ticks (Tick)
system.cpu.icache.demandAccesses::cpu.inst      1786058                       # number of demand (read+write) accesses (Count)
system.cpu.icache.demandAccesses::total       1786058                       # number of demand (read+write) accesses (Count)
system.cpu.icache.overallAccesses::cpu.inst      1786058                       # number of overall (read+write) accesses (Count)
system.cpu.icache.overallAccesses::total      1786058                       # number of overall (read+write) accesses (Count)
system.cpu.icache.demandMissRate::cpu.inst     0.000684                       # miss rate for demand accesses (Ratio)
system.cpu.icache.demandMissRate::total      0.000684                       # miss rate for demand accesses (Ratio)
system.cpu.icache.overallMissRate::cpu.inst     0.000684                       # miss rate for overall accesses (Ratio)
system.cpu.icache.overallMissRate::total     0.000684                       # miss rate for overall accesses (Ratio)
system.cpu.icache.demandAvgMissLatency::cpu.inst 72533.551555                       # average overall miss latency ((Cycle/Count))
system.cpu.icache.demandAvgMissLatency::total 72533.551555                       # average overall miss latency ((Cycle/Count))
system.cpu.icache.overallAvgMissLatency::cpu.inst 72533.551555                       # average overall miss latency ((Cycle/Count))
system.cpu.icache.overallAvgMissLatency::total 72533.551555                       # average overall miss latency ((Cycle/Count))
system.cpu.icache.blockedCycles::no_mshrs          129                       # number of cycles access was blocked (Cycle)
system.cpu.icache.blockedCycles::no_targets            0                       # number of cycles access was blocked (Cycle)
system.cpu.icache.blockedCauses::no_mshrs            7                       # number of times access was blocked (Count)
system.cpu.icache.blockedCauses::no_targets            0                       # number of times access was blocked (Count)
system.cpu.icache.avgBlocked::no_mshrs      18.428571                       # average number of cycles each access was blocked ((Cycle/Count))
system.cpu.icache.avgBlocked::no_targets          nan                       # average number of cycles each access was blocked ((Cycle/Count))
system.cpu.icache.writebacks::writebacks          380                       # number of writebacks (Count)
system.cpu.icache.writebacks::total               380                       # number of writebacks (Count)
system.cpu.icache.demandMshrHits::cpu.inst          331                       # number of demand (read+write) MSHR hits (Count)
system.cpu.icache.demandMshrHits::total           331                       # number of demand (read+write) MSHR hits (Count)
system.cpu.icache.overallMshrHits::cpu.inst          331                       # number of overall MSHR hits (Count)
system.cpu.icache.overallMshrHits::total          331                       # number of overall MSHR hits (Count)
system.cpu.icache.demandMshrMisses::cpu.inst          891                       # number of demand (read+write) MSHR misses (Count)
system.cpu.icache.demandMshrMisses::total          891                       # number of demand (read+write) MSHR misses (Count)
system.cpu.icache.overallMshrMisses::cpu.inst          891                       # number of overall MSHR misses (Count)
system.cpu.icache.overallMshrMisses::total          891                       # number of overall MSHR misses (Count)
system.cpu.icache.demandMshrMissLatency::cpu.inst     69245000                       # number of demand (read+write) MSHR miss ticks (Tick)
system.cpu.icache.demandMshrMissLatency::total     69245000                       # number of demand (read+write) MSHR miss ticks (Tick)
system.cpu.icache.overallMshrMissLatency::cpu.inst     69245000                       # number of overall MSHR miss ticks (Tick)
system.cpu.icache.overallMshrMissLatency::total     69245000                       # number of overall MSHR miss ticks (Tick)
system.cpu.icache.demandMshrMissRate::cpu.inst     0.000499                       # mshr miss ratio for demand accesses (Ratio)
system.cpu.icache.demandMshrMissRate::total     0.000499                       # mshr miss ratio for demand accesses (Ratio)
system.cpu.icache.overallMshrMissRate::cpu.inst     0.000499                       # mshr miss ratio for overall accesses (Ratio)
system.cpu.icache.overallMshrMissRate::total     0.000499                       # mshr miss ratio for overall accesses (Ratio)
system.cpu.icache.demandAvgMshrMissLatency::cpu.inst 77716.049383                       # average overall mshr miss latency ((Cycle/Count))
system.cpu.icache.demandAvgMshrMissLatency::total 77716.049383                       # average overall mshr miss latency ((Cycle/Count))
system.cpu.icache.overallAvgMshrMissLatency::cpu.inst 77716.049383                       # average overall mshr miss latency ((Cycle/Count))
system.cpu.icache.overallAvgMshrMissLatency::total 77716.049383                       # average overall mshr miss latency ((Cycle/Count))
system.cpu.icache.replacements                    380                       # number of replacements (Count)
system.cpu.icache.ReadReq.hits::cpu.inst      1784836                       # number of ReadReq hits (Count)
system.cpu.icache.ReadReq.hits::total         1784836                       # number of ReadReq hits (Count)
system.cpu.icache.ReadReq.misses::cpu.inst         1222                       # number of ReadReq misses (Count)
system.cpu.icache.ReadReq.misses::total          1222                       # number of ReadReq misses (Count)
system.cpu.icache.ReadReq.missLatency::cpu.inst     88636000                       # number of ReadReq miss ticks (Tick)
system.cpu.icache.ReadReq.missLatency::total     88636000                       # number of ReadReq miss ticks (Tick)
system.cpu.icache.ReadReq.accesses::cpu.inst      1786058                       # number of ReadReq accesses(hits+misses) (Count)
system.cpu.icache.ReadReq.accesses::total      1786058                       # number of ReadReq accesses(hits+misses) (Count)
system.cpu.icache.ReadReq.missRate::cpu.inst     0.000684                       # miss rate for ReadReq accesses (Ratio)
system.cpu.icache.ReadReq.missRate::total     0.000684                       # miss rate for ReadReq accesses (Ratio)
system.cpu.icache.ReadReq.avgMissLatency::cpu.inst 72533.551555                       # average ReadReq miss latency ((Tick/Count))
system.cpu.icache.ReadReq.avgMissLatency::total 72533.551555                       # average ReadReq miss latency ((Tick/Count))
system.cpu.icache.ReadReq.mshrHits::cpu.inst          331                       # number of ReadReq MSHR hits (Count)
system.cpu.icache.ReadReq.mshrHits::total          331                       # number of ReadReq MSHR hits (Count)
system.cpu.icache.ReadReq.mshrMisses::cpu.inst          891                       # number of ReadReq MSHR misses (Count)
system.cpu.icache.ReadReq.mshrMisses::total          891                       # number of ReadReq MSHR misses (Count)
system.cpu.icache.ReadReq.mshrMissLatency::cpu.inst     69245000                       # number of ReadReq MSHR miss ticks (Tick)
system.cpu.icache.ReadReq.mshrMissLatency::total     69245000                       # number of ReadReq MSHR miss ticks (Tick)
system.cpu.icache.ReadReq.mshrMissRate::cpu.inst     0.000499                       # mshr miss rate for ReadReq accesses (Ratio)
system.cpu.icache.ReadReq.mshrMissRate::total     0.000499                       # mshr miss rate for ReadReq accesses (Ratio)
system.cpu.icache.ReadReq.avgMshrMissLatency::cpu.inst 77716.049383                       # average ReadReq mshr miss latency ((Tick/Count))
system.cpu.icache.ReadReq.avgMshrMissLatency::total 77716.049383                       # average ReadReq mshr miss latency ((Tick/Count))
system.cpu.icache.power_state.pwrStateResidencyTicks::UNDEFINED   3073436000                       # Cumulative time (in ticks) in various power states (Tick)
system.cpu.icache.tags.tagsInUse           473.715630                       # Average ticks per tags in use ((Tick/Count))
system.cpu.icache.tags.totalRefs              1785727                       # Total number of references to valid blocks. (Count)
system.cpu.icache.tags.sampledRefs                891                       # Sample count of references to valid blocks. (Count)
system.cpu.icache.tags.avgRefs            2004.182941                       # Average number of references to valid blocks. ((Count/Count))
system.cpu.icache.tags.warmupTick               87500                       # The tick when the warmup percentage was hit. (Tick)
system.cpu.icache.tags.occupancies::cpu.inst   473.715630                       # Average occupied blocks per tick, per requestor ((Count/Tick))
system.cpu.icache.tags.avgOccs::cpu.inst     0.925226                       # Average percentage of cache occupancy ((Ratio/Tick))
system.cpu.icache.tags.avgOccs::total        0.925226                       # Average percentage of cache occupancy ((Ratio/Tick))
system.cpu.icache.tags.occupanciesTaskId::1024          506                       # Occupied blocks per task id (Count)
system.cpu.icache.tags.ageTaskId_1024::0          103                       # Occupied blocks per task id, per block age (Count)
system.cpu.icache.tags.ageTaskId_1024::1          116                       # Occupied blocks per task id, per block age (Count)
system.cpu.icache.tags.ageTaskId_1024::3          287                       # Occupied blocks per task id, per block age (Count)
system.cpu.icache.tags.ratioOccsTaskId::1024     0.988281                       # Ratio of occupied blocks and all blocks, per task id (Ratio)
system.cpu.icache.tags.tagAccesses            7145123                       # Number of tag accesses (Count)
system.cpu.icache.tags.dataAccesses           7145123                       # Number of data accesses (Count)
system.cpu.icache.tags.power_state.pwrStateResidencyTicks::UNDEFINED   3073436000                       # Cumulative time (in ticks) in various power states (Tick)
system.cpu.interrupts.clk_domain.clock           8000                       # Clock period in ticks (Tick)
system.cpu.itb_walker_cache.blockedCycles::no_mshrs            0                       # number of cycles access was blocked (Cycle)
system.cpu.itb_walker_cache.blockedCycles::no_targets            0                       # number of cycles access was blocked (Cycle)
system.cpu.itb_walker_cache.blockedCauses::no_mshrs            0                       # number of times access was blocked (Count)
system.cpu.itb_walker_cache.blockedCauses::no_targets            0                       # number of times access was blocked (Count)
system.cpu.itb_walker_cache.avgBlocked::no_mshrs          nan                       # average number of cycles each access was blocked ((Cycle/Count))
system.cpu.itb_walker_cache.avgBlocked::no_targets          nan                       # average number of cycles each access was blocked ((Cycle/Count))
system.cpu.itb_walker_cache.replacements            0                       # number of replacements (Count)
system.cpu.itb_walker_cache.power_state.pwrStateResidencyTicks::UNDEFINED   3073436000                       # Cumulative time (in ticks) in various power states (Tick)
system.cpu.itb_walker_cache.tags.tagsInUse            0                       # Average ticks per tags in use ((Tick/Count))
system.cpu.itb_walker_cache.tags.totalRefs            0                       # Total number of references to valid blocks. (Count)
system.cpu.itb_walker_cache.tags.sampledRefs            0                       # Sample count of references to valid blocks. (Count)
system.cpu.itb_walker_cache.tags.avgRefs          nan                       # Average number of references to valid blocks. ((Count/Count))
system.cpu.itb_walker_cache.tags.warmupTick            0                       # The tick when the warmup percentage was hit. (Tick)
system.cpu.itb_walker_cache.tags.tagAccesses            0                       # Number of tag accesses (Count)
system.cpu.itb_walker_cache.tags.dataAccesses            0                       # Number of data accesses (Count)
system.cpu.itb_walker_cache.tags.power_state.pwrStateResidencyTicks::UNDEFINED   3073436000                       # Cumulative time (in ticks) in various power states (Tick)
system.cpu.lsq0.forwLoads                     2211729                       # Number of loads that had data forwarded from stores (Count)
system.cpu.lsq0.squashedLoads                  115045                       # Number of loads squashed (Count)
system.cpu.lsq0.ignoredResponses                  714                       # Number of memory responses ignored because the instruction is squashed (Count)
system.cpu.lsq0.memOrderViolation                 550                       # Number of memory ordering violations (Count)
system.cpu.lsq0.squashedStores                 144153                       # Number of stores squashed (Count)
system.cpu.lsq0.rescheduledLoads                    2                       # Number of loads that were rescheduled (Count)
system.cpu.lsq0.blockedByCache                      7                       # Number of times an access to memory failed due to the cache being blocked (Count)
system.cpu.lsq0.loadToUse::samples            3739631                       # Distribution of cycle latency between the first time a load is issued and its completion (Unspecified)
system.cpu.lsq0.loadToUse::mean              2.859767                       # Distribution of cycle latency between the first time a load is issued and its completion (Unspecified)
system.cpu.lsq0.loadToUse::stdev             6.356511                       # Distribution of cycle latency between the first time a load is issued and its completion (Unspecified)
system.cpu.lsq0.loadToUse::0-9                3713546     99.30%     99.30% # Distribution of cycle latency between the first time a load is issued and its completion (Unspecified)
system.cpu.lsq0.loadToUse::10-19                  352      0.01%     99.31% # Distribution of cycle latency between the first time a load is issued and its completion (Unspecified)
system.cpu.lsq0.loadToUse::20-29                19973      0.53%     99.85% # Distribution of cycle latency between the first time a load is issued and its completion (Unspecified)
system.cpu.lsq0.loadToUse::30-39                   26      0.00%     99.85% # Distribution of cycle latency between the first time a load is issued and its completion (Unspecified)
system.cpu.lsq0.loadToUse::40-49                    1      0.00%     99.85% # Distribution of cycle latency between the first time a load is issued and its completion (Unspecified)
system.cpu.lsq0.loadToUse::50-59                    2      0.00%     99.85% # Distribution of cycle latency between the first time a load is issued and its completion (Unspecified)
system.cpu.lsq0.loadToUse::60-69                    7      0.00%     99.85% # Distribution of cycle latency between the first time a load is issued and its completion (Unspecified)
system.cpu.lsq0.loadToUse::70-79                    2      0.00%     99.85% # Distribution of cycle latency between the first time a load is issued and its completion (Unspecified)
[...]
system.mem_ctrls.dram.perBankWrBursts::14            0                       # Per bank write bursts (Count)
system.mem_ctrls.dram.perBankWrBursts::15            0                       # Per bank write bursts (Count)
system.mem_ctrls.dram.totQLat                21569750                       # Total ticks spent queuing (Tick)
system.mem_ctrls.dram.totBusLat              17750000                       # Total ticks spent in databus transfers (Tick)
system.mem_ctrls.dram.totMemAccLat           88132250                       # Total ticks spent from burst creation until serviced by the DRAM (Tick)
system.mem_ctrls.dram.avgQLat                 6075.99                       # Average queueing delay per DRAM burst ((Tick/Count))
system.mem_ctrls.dram.avgBusLat               5000.00                       # Average bus latency per DRAM burst ((Tick/Count))
system.mem_ctrls.dram.avgMemAccLat           24825.99                       # Average memory access latency per DRAM burst ((Tick/Count))
system.mem_ctrls.dram.readRowHits                3042                       # Number of row buffer hits during reads (Count)
system.mem_ctrls.dram.writeRowHits                  0                       # Number of row buffer hits during writes (Count)
system.mem_ctrls.dram.readRowHitRate            85.69                       # Row buffer hit rate for reads (Ratio)
system.mem_ctrls.dram.writeRowHitRate             nan                       # Row buffer hit rate for writes (Ratio)
system.mem_ctrls.dram.bytesPerActivate::samples          498                       # Bytes accessed per row activation (Byte)
system.mem_ctrls.dram.bytesPerActivate::mean   453.012048                       # Bytes accessed per row activation (Byte)
system.mem_ctrls.dram.bytesPerActivate::gmean   270.220932                       # Bytes accessed per row activation (Byte)
system.mem_ctrls.dram.bytesPerActivate::stdev   391.923046                       # Bytes accessed per row activation (Byte)
system.mem_ctrls.dram.bytesPerActivate::0-127          135     27.11%     27.11% # Bytes accessed per row activation (Byte)
system.mem_ctrls.dram.bytesPerActivate::128-255           91     18.27%     45.38% # Bytes accessed per row activation (Byte)
system.mem_ctrls.dram.bytesPerActivate::256-383           50     10.04%     55.42% # Bytes accessed per row activation (Byte)
system.mem_ctrls.dram.bytesPerActivate::384-511           26      5.22%     60.64% # Bytes accessed per row activation (Byte)
system.mem_ctrls.dram.bytesPerActivate::512-639           20      4.02%     64.66% # Bytes accessed per row activation (Byte)
system.mem_ctrls.dram.bytesPerActivate::640-767           26      5.22%     69.88% # Bytes accessed per row activation (Byte)
system.mem_ctrls.dram.bytesPerActivate::768-895           11      2.21%     72.09% # Bytes accessed per row activation (Byte)
system.mem_ctrls.dram.bytesPerActivate::896-1023           15      3.01%     75.10% # Bytes accessed per row activation (Byte)
system.mem_ctrls.dram.bytesPerActivate::1024-1151          124     24.90%    100.00% # Bytes accessed per row activation (Byte)
system.mem_ctrls.dram.bytesPerActivate::total          498                       # Bytes accessed per row activation (Byte)
system.mem_ctrls.dram.bytesRead                227200                       # Total number of bytes read from DRAM (Byte)
system.mem_ctrls.dram.bytesWritten                  0                       # Total number of bytes written to DRAM (Byte)
system.mem_ctrls.dram.avgRdBW               73.923778                       # Average DRAM read bandwidth in MiBytes/s ((Byte/Second))
system.mem_ctrls.dram.avgWrBW                       0                       # Average DRAM write bandwidth in MiBytes/s ((Byte/Second))
system.mem_ctrls.dram.peakBW                 12800.00                       # Theoretical peak bandwidth in MiByte/s ((Byte/Second))
system.mem_ctrls.dram.busUtil                    0.58                       # Data bus utilization in percentage (Ratio)
system.mem_ctrls.dram.busUtilRead                0.58                       # Data bus utilization in percentage for reads (Ratio)
system.mem_ctrls.dram.busUtilWrite               0.00                       # Data bus utilization in percentage for writes (Ratio)
system.mem_ctrls.dram.pageHitRate               85.69                       # Row buffer hit rate, read and write combined (Ratio)
system.mem_ctrls.dram.power_state.pwrStateResidencyTicks::UNDEFINED   3073436000                       # Cumulative time (in ticks) in various power states (Tick)
system.mem_ctrls.dram.rank0.actEnergy         2191980                       # Energy for activate commands per rank (pJ) (Joule)
system.mem_ctrls.dram.rank0.preEnergy         1142295                       # Energy for precharge commands per rank (pJ) (Joule)
system.mem_ctrls.dram.rank0.readEnergy       15393840                       # Energy for read commands per rank (pJ) (Joule)
system.mem_ctrls.dram.rank0.writeEnergy             0                       # Energy for write commands per rank (pJ) (Joule)
system.mem_ctrls.dram.rank0.refreshEnergy 242168160.000000                       # Energy for refresh commands per rank (pJ) (Joule)
system.mem_ctrls.dram.rank0.actBackEnergy    239639970                       # Energy for active background per rank (pJ) (Joule)
system.mem_ctrls.dram.rank0.preBackEnergy    978397440                       # Energy for precharge background per rank (pJ) (Joule)
system.mem_ctrls.dram.rank0.actPowerDownEnergy            0                       # Energy for active power-down per rank (pJ) (Joule)
system.mem_ctrls.dram.rank0.prePowerDownEnergy            0                       # Energy for precharge power-down per rank (pJ) (Joule)
system.mem_ctrls.dram.rank0.selfRefreshEnergy            0                       # Energy for self refresh per rank (pJ) (Joule)
system.mem_ctrls.dram.rank0.totalEnergy    1478933685                       # Total energy per rank (pJ) (Joule)
system.mem_ctrls.dram.rank0.averagePower   481.198790                       # Core power per rank (mW) (Watt)
system.mem_ctrls.dram.rank0.totalIdleTime            0                       # Total Idle time Per DRAM Rank (Tick)
system.mem_ctrls.dram.rank0.pwrStateTime::IDLE   2540887500                       # Time in different power states (Tick)
system.mem_ctrls.dram.rank0.pwrStateTime::REF    102440000                       # Time in different power states (Tick)
system.mem_ctrls.dram.rank0.pwrStateTime::SREF            0                       # Time in different power states (Tick)
system.mem_ctrls.dram.rank0.pwrStateTime::PRE_PDN            0                       # Time in different power states (Tick)
system.mem_ctrls.dram.rank0.pwrStateTime::ACT    430108500                       # Time in different power states (Tick)
system.mem_ctrls.dram.rank0.pwrStateTime::ACT_PDN            0                       # Time in different power states (Tick)
system.mem_ctrls.dram.rank1.actEnergy         1435140                       # Energy for activate commands per rank (pJ) (Joule)
system.mem_ctrls.dram.rank1.preEnergy          747615                       # Energy for precharge commands per rank (pJ) (Joule)
system.mem_ctrls.dram.rank1.readEnergy        9953160                       # Energy for read commands per rank (pJ) (Joule)
system.mem_ctrls.dram.rank1.writeEnergy             0                       # Energy for write commands per rank (pJ) (Joule)
system.mem_ctrls.dram.rank1.refreshEnergy 242168160.000000                       # Energy for refresh commands per rank (pJ) (Joule)
system.mem_ctrls.dram.rank1.actBackEnergy    130751160                       # Energy for active background per rank (pJ) (Joule)
system.mem_ctrls.dram.rank1.preBackEnergy   1070093280                       # Energy for precharge background per rank (pJ) (Joule)
system.mem_ctrls.dram.rank1.actPowerDownEnergy            0                       # Energy for active power-down per rank (pJ) (Joule)
system.mem_ctrls.dram.rank1.prePowerDownEnergy            0                       # Energy for precharge power-down per rank (pJ) (Joule)
system.mem_ctrls.dram.rank1.selfRefreshEnergy            0                       # Energy for self refresh per rank (pJ) (Joule)
system.mem_ctrls.dram.rank1.totalEnergy    1455148515                       # Total energy per rank (pJ) (Joule)
system.mem_ctrls.dram.rank1.averagePower   473.459839                       # Core power per rank (mW) (Watt)
system.mem_ctrls.dram.rank1.totalIdleTime            0                       # Total Idle time Per DRAM Rank (Tick)
system.mem_ctrls.dram.rank1.pwrStateTime::IDLE   2780324000                       # Time in different power states (Tick)
system.mem_ctrls.dram.rank1.pwrStateTime::REF    102440000                       # Time in different power states (Tick)
system.mem_ctrls.dram.rank1.pwrStateTime::SREF            0                       # Time in different power states (Tick)
system.mem_ctrls.dram.rank1.pwrStateTime::PRE_PDN            0                       # Time in different power states (Tick)
system.mem_ctrls.dram.rank1.pwrStateTime::ACT    190672000                       # Time in different power states (Tick)
system.mem_ctrls.dram.rank1.pwrStateTime::ACT_PDN            0                       # Time in different power states (Tick)
system.mem_ctrls.power_state.pwrStateResidencyTicks::UNDEFINED   3073436000                       # Cumulative time (in ticks) in various power states (Tick)
system.membus.transDist::ReadResp                2993                       # Transaction distribution (Count)
system.membus.transDist::WritebackDirty            22                       # Transaction distribution (Count)
system.membus.transDist::CleanEvict                48                       # Transaction distribution (Count)
system.membus.transDist::ReadExReq                558                       # Transaction distribution (Count)
system.membus.transDist::ReadExResp               558                       # Transaction distribution (Count)
system.membus.transDist::ReadSharedReq           2993                       # Transaction distribution (Count)
system.membus.pktCount_system.l2.mem_side_port::system.mem_ctrls.port         7172                       # Packet count per connected requestor and responder (Count)
system.membus.pktCount_system.l2.mem_side_port::total         7172                       # Packet count per connected requestor and responder (Count)
system.membus.pktCount::total                    7172                       # Packet count per connected requestor and responder (Count)
system.membus.pktSize_system.l2.mem_side_port::system.mem_ctrls.port       228672                       # Cumulative packet size per connected requestor and responder (Byte)
system.membus.pktSize_system.l2.mem_side_port::total       228672                       # Cumulative packet size per connected requestor and responder (Byte)
system.membus.pktSize::total                   228672                       # Cumulative packet size per connected requestor and responder (Byte)
system.membus.snoops                                0                       # Total snoops (Count)
system.membus.snoopTraffic                          0                       # Total snoop traffic (Byte)
system.membus.snoopFanout::samples               3551                       # Request fanout histogram (Count)
system.membus.snoopFanout::mean                     0                       # Request fanout histogram (Count)
system.membus.snoopFanout::stdev                    0                       # Request fanout histogram (Count)
system.membus.snoopFanout::underflows               0      0.00%      0.00% # Request fanout histogram (Count)
system.membus.snoopFanout::0                     3551    100.00%    100.00% # Request fanout histogram (Count)
system.membus.snoopFanout::1                        0      0.00%    100.00% # Request fanout histogram (Count)
system.membus.snoopFanout::overflows                0      0.00%    100.00% # Request fanout histogram (Count)
system.membus.snoopFanout::min_value                0                       # Request fanout histogram (Count)
system.membus.snoopFanout::max_value                0                       # Request fanout histogram (Count)
system.membus.snoopFanout::total                 3551                       # Request fanout histogram (Count)
system.membus.power_state.pwrStateResidencyTicks::UNDEFINED   3073436000                       # Cumulative time (in ticks) in various power states (Tick)
system.membus.reqLayer2.occupancy             4244500                       # Layer occupancy (ticks) (Tick)
system.membus.reqLayer2.utilization               0.0                       # Layer utilization (Ratio)
system.membus.respLayer1.occupancy           18769000                       # Layer occupancy (ticks) (Tick)
system.membus.respLayer1.utilization              0.0                       # Layer utilization (Ratio)
system.membus.snoop_filter.totRequests           3621                       # Total number of requests made to the snoop filter. (Count)
system.membus.snoop_filter.hitSingleRequests           71                       # Number of requests hitting in the snoop filter with a single holder of the requested data. (Count)
system.membus.snoop_filter.hitMultiRequests            0                       # Number of requests hitting in the snoop filter with multiple (>1) holders of the requested data. (Count)
system.membus.snoop_filter.totSnoops                0                       # Total number of snoops made to the snoop filter. (Count)
system.membus.snoop_filter.hitSingleSnoops            0                       # Number of snoops hitting in the snoop filter with a single holder of the requested data. (Count)
system.membus.snoop_filter.hitMultiSnoops            0                       # Number of snoops hitting in the snoop filter with multiple (>1) holders of the requested data. (Count)
system.tol2bus.transDist::ReadResp              19771                       # Transaction distribution (Count)
system.tol2bus.transDist::WritebackDirty         2736                       # Transaction distribution (Count)
system.tol2bus.transDist::WritebackClean          380                       # Transaction distribution (Count)
system.tol2bus.transDist::CleanEvict            16578                       # Transaction distribution (Count)
system.tol2bus.transDist::UpgradeReq                5                       # Transaction distribution (Count)
system.tol2bus.transDist::UpgradeResp               5                       # Transaction distribution (Count)
system.tol2bus.transDist::ReadExReq               775                       # Transaction distribution (Count)
system.tol2bus.transDist::ReadExResp              775                       # Transaction distribution (Count)
system.tol2bus.transDist::ReadCleanReq            891                       # Transaction distribution (Count)
system.tol2bus.transDist::ReadSharedReq         18880                       # Transaction distribution (Count)
system.tol2bus.pktCount_system.cpu.icache.mem_side_port::system.l2.cpu_side_port         2157                       # Packet count per connected requestor and responder (Count)
system.tol2bus.pktCount_system.cpu.dcache.mem_side_port::system.l2.cpu_side_port        58463                       # Packet count per connected requestor and responder (Count)
system.tol2bus.pktCount::total                  60620                       # Packet count per connected requestor and responder (Count)
system.tol2bus.pktSize_system.cpu.icache.mem_side_port::system.l2.cpu_side_port        81024                       # Cumulative packet size per connected requestor and responder (Byte)
system.tol2bus.pktSize_system.cpu.dcache.mem_side_port::system.l2.cpu_side_port      1431616                       # Cumulative packet size per connected requestor and responder (Byte)
system.tol2bus.pktSize::total                 1512640                       # Cumulative packet size per connected requestor and responder (Byte)
system.tol2bus.snoops                             176                       # Total snoops (Count)
system.tol2bus.snoopTraffic                      1728                       # Total snoop traffic (Byte)
system.tol2bus.snoopFanout::samples             20722                       # Request fanout histogram (Count)
system.tol2bus.snoopFanout::mean             0.005743                       # Request fanout histogram (Count)
system.tol2bus.snoopFanout::stdev            0.075564                       # Request fanout histogram (Count)
system.tol2bus.snoopFanout::underflows              0      0.00%      0.00% # Request fanout histogram (Count)
system.tol2bus.snoopFanout::0                   20603     99.43%     99.43% # Request fanout histogram (Count)
system.tol2bus.snoopFanout::1                     119      0.57%    100.00% # Request fanout histogram (Count)
system.tol2bus.snoopFanout::2                       0      0.00%    100.00% # Request fanout histogram (Count)
system.tol2bus.snoopFanout::3                       0      0.00%    100.00% # Request fanout histogram (Count)
system.tol2bus.snoopFanout::4                       0      0.00%    100.00% # Request fanout histogram (Count)
system.tol2bus.snoopFanout::overflows               0      0.00%    100.00% # Request fanout histogram (Count)
system.tol2bus.snoopFanout::min_value               0                       # Request fanout histogram (Count)
system.tol2bus.snoopFanout::max_value               1                       # Request fanout histogram (Count)
system.tol2bus.snoopFanout::total               20722                       # Request fanout histogram (Count)
system.tol2bus.power_state.pwrStateResidencyTicks::UNDEFINED   3073436000                       # Cumulative time (in ticks) in various power states (Tick)
system.tol2bus.reqLayer0.occupancy           23131000                       # Layer occupancy (ticks) (Tick)
system.tol2bus.reqLayer0.utilization              0.0                       # Layer utilization (Ratio)
system.tol2bus.respLayer0.occupancy           1336500                       # Layer occupancy (ticks) (Tick)
system.tol2bus.respLayer0.utilization             0.0                       # Layer utilization (Ratio)
system.tol2bus.respLayer1.occupancy          29485000                       # Layer occupancy (ticks) (Tick)
system.tol2bus.respLayer1.utilization             0.0                       # Layer utilization (Ratio)
system.tol2bus.snoop_filter.totRequests         40074                       # Total number of requests made to the snoop filter. (Count)
system.tol2bus.snoop_filter.hitSingleRequests        19529                       # Number of requests hitting in the snoop filter with a single holder of the requested data. (Count)
system.tol2bus.snoop_filter.hitMultiRequests           12                       # Number of requests hitting in the snoop filter with multiple (>1) holders of the requested data. (Count)
system.tol2bus.snoop_filter.totSnoops             101                       # Total number of snoops made to the snoop filter. (Count)
system.tol2bus.snoop_filter.hitSingleSnoops          101                       # Number of snoops hitting in the snoop filter with a single holder of the requested data. (Count)
system.tol2bus.snoop_filter.hitMultiSnoops            0                       # Number of snoops hitting in the snoop filter with multiple (>1) holders of the requested data. (Count)
system.voltage_domain.voltage                       1                       # Voltage in Volts (Volt)
system.workload.inst.arm                            0                       # number of arm instructions executed (Count)
system.workload.inst.quiesce                        0                       # number of quiesce instructions executed (Count)

---------- End Simulation Statistics   ----------
