
---------- Begin Simulation Statistics ----------
simSeconds                                   0.009105                       # Number of seconds simulated (Second)
simTicks                                   9104804000                       # Number of ticks simulated (Tick)
finalTick                                  9104804000                       # Number of ticks from beginning of simulation (restored from checkpoints and never reset) (Tick)
simFreq                                  1000000000000                       # The number of ticks per simulated second ((Tick/Second))
hostSeconds                                    106.87                       # Real time elapsed on the host (Second)
hostTickRate                                 85194388                       # The number of ticks simulated per host second (ticks/s) ((Tick/Second))
hostMemory                                     647196                       # Number of bytes of host memory used (Byte)
simInsts                                     10000000                       # Number of instructions simulated (Count)
simOps                                       15716915                       # Number of ops (including micro ops) simulated (Count)
hostInstRate                                    93571                       # Simulator instruction rate (inst/s) ((Count/Second))
hostOpRate                                     147064                       # Simulator op (including micro ops) rate (op/s) ((Count/Second))
system.clk_domain.clock                          1000                       # Clock period in ticks (Tick)
system.cpu.numCycles                         18209609                       # Number of cpu cycles simulated (Cycle)
system.cpu.numWorkItemsStarted                      0                       # Number of work items this cpu started (Count)
system.cpu.numWorkItemsCompleted                    0                       # Number of work items this cpu completed (Count)
system.cpu.instsAdded                        15998927                       # Number of instructions added to the IQ (excludes non-spec) (Count)
system.cpu.nonSpecInstsAdded                       94                       # Number of non-speculative instructions added to the IQ (Count)
system.cpu.instsIssued                       15994663                       # Number of instructions issued (Count)
system.cpu.squashedInstsIssued                    151                       # Number of squashed instructions issued (Count)
system.cpu.squashedInstsExamined               282095                       # Number of squashed instructions iterated over during squash; mainly for profiling (Count)
system.cpu.squashedOperandsExamined            119085                       # Number of squashed operands that are examined and possibly removed from graph (Count)
system.cpu.squashedNonSpecRemoved                  90                       # Number of squashed non-spec instructions that were removed (Count)
system.cpu.numIssuedDist::samples            18178174                       # Number of insts issued each cycle (Count)
system.cpu.numIssuedDist::mean               0.879883                       # Number of insts issued each cycle (Count)
system.cpu.numIssuedDist::stdev              1.765235                       # Number of insts issued each cycle (Count)
system.cpu.numIssuedDist::underflows                0      0.00%      0.00% # Number of insts issued each cycle (Count)
system.cpu.numIssuedDist::0                  12893808     70.93%     70.93% # Number of insts issued each cycle (Count)
system.cpu.numIssuedDist::1                   1276788      7.02%     77.95% # Number of insts issued each cycle (Count)
system.cpu.numIssuedDist::2                   2106426     11.59%     89.54% # Number of insts issued each cycle (Count)
system.cpu.numIssuedDist::3                    269567      1.48%     91.02% # Number of insts issued each cycle (Count)
system.cpu.numIssuedDist::4                     88080      0.48%     91.51% # Number of insts issued each cycle (Count)
system.cpu.numIssuedDist::5                    180077      0.99%     92.50% # Number of insts issued each cycle (Count)
system.cpu.numIssuedDist::6                   1187776      6.53%     99.03% # Number of insts issued each cycle (Count)
system.cpu.numIssuedDist::7                     88255      0.49%     99.52% # Number of insts issued each cycle (Count)
system.cpu.numIssuedDist::8                     87397      0.48%    100.00% # Number of insts issued each cycle (Count)
system.cpu.numIssuedDist::overflows                 0      0.00%    100.00% # Number of insts issued each cycle (Count)
system.cpu.numIssuedDist::min_value                 0                       # Number of insts issued each cycle (Count)
system.cpu.numIssuedDist::max_value                 8                       # Number of insts issued each cycle (Count)
system.cpu.numIssuedDist::total              18178174                       # Number of insts issued each cycle (Count)
system.cpu.statFuBusy::No_OpClass                   0      0.00%      0.00% # attempts to use FU when none available (Count)
system.cpu.statFuBusy::IntAlu                     323     69.91%     69.91% # attempts to use FU when none available (Count)
system.cpu.statFuBusy::IntMult                      0      0.00%     69.91% # attempts to use FU when none available (Count)
system.cpu.statFuBusy::IntDiv                       0      0.00%     69.91% # attempts to use FU when none available (Count)
system.cpu.statFuBusy::FloatAdd                     0      0.00%     69.91% # attempts to use FU when none available (Count)
system.cpu.statFuBusy::FloatCmp                     0      0.00%     69.91% # attempts to use FU when none available (Count)
system.cpu.statFuBusy::FloatCvt                     0      0.00%     69.91% # attempts to use FU when none available (Count)
system.cpu.statFuBusy::FloatMult                    0      0.00%     69.91% # attempts to use FU when none available (Count)
system.cpu.statFuBusy::FloatMultAcc                 0      0.00%     69.91% # attempts to use FU when none available (Count)
system.cpu.statFuBusy::FloatDiv                     0      0.00%     69.91% # attempts to use FU when none available (Count)
system.cpu.statFuBusy::FloatMisc                    0      0.00%     69.91% # attempts to use FU when none available (Count)
system.cpu.statFuBusy::FloatSqrt                    0      0.00%     69.91% # attempts to use FU when none available (Count)
system.cpu.statFuBusy::SimdAdd                      0      0.00%     69.91% # attempts to use FU when none available (Count)
system.cpu.statFuBusy::SimdAddAcc                   0      0.00%     69.91% # attempts to use FU when none available (Count)
system.cpu.statFuBusy::SimdAlu                      0      0.00%     69.91% # attempts to use FU when none available (Count)
system.cpu.statFuBusy::SimdCmp                      0      0.00%     69.91% # attempts to use FU when none available (Count)
system.cpu.statFuBusy::SimdCvt                      0      0.00%     69.91% # attempts to use FU when none available (Count)
system.cpu.statFuBusy::SimdMisc                     0      0.00%     69.91% # attempts to use FU when none available (Count)
system.cpu.statFuBusy::SimdMult                     0      0.00%     69.91% # attempts to use FU when none available (Count)
system.cpu.statFuBusy::SimdMultAcc                  0      0.00%     69.91% # attempts to use FU when none available (Count)
system.cpu.statFuBusy::SimdShift                    0      0.00%     69.91% # attempts to use FU when none available (Count)
system.cpu.statFuBusy::SimdShiftAcc                 0      0.00%     69.91% # attempts to use FU when none available (Count)
system.cpu.statFuBusy::SimdDiv                      0      0.00%     69.91% # attempts to use FU when none available (Count)
system.cpu.statFuBusy::SimdSqrt                     0      0.00%     69.91% # attempts to use FU when none available (Count)
system.cpu.statFuBusy::SimdFloatAdd                 0      0.00%     69.91% # attempts to use FU when none available (Count)
system.cpu.statFuBusy::SimdFloatAlu                 0      0.00%     69.91% # attempts to use FU when none available (Count)
system.cpu.statFuBusy::SimdFloatCmp                 0      0.00%     69.91% # attempts to use FU when none available (Count)
system.cpu.statFuBusy::SimdFloatCvt                 0      0.00%     69.91% # attempts to use FU when none available (Count)
system.cpu.statFuBusy::SimdFloatDiv                 0      0.00%     69.91% # attempts to use FU when none available (Count)
system.cpu.statFuBusy::SimdFloatMisc                0      0.00%     69.91% # attempts to use FU when none available (Count)
system.cpu.statFuBusy::SimdFloatMult                0      0.00%     69.91% # attempts to use FU when none available (Count)
system.cpu.statFuBusy::SimdFloatMultAcc             0      0.00%     69.91% # attempts to use FU when none available (Count)
system.cpu.statFuBusy::SimdFloatSqrt                0      0.00%     69.91% # attempts to use FU when none available (Count)
system.cpu.statFuBusy::SimdReduceAdd                0      0.00%     69.91% # attempts to use FU when none available (Count)
system.cpu.statFuBusy::SimdReduceAlu                0      0.00%     69.91% # attempts to use FU when none available (Count)
system.cpu.statFuBusy::SimdReduceCmp                0      0.00%     69.91% # attempts to use FU when none available (Count)
system.cpu.statFuBusy::SimdFloatReduceAdd            0      0.00%     69.91% # attempts to use FU when none available (Count)
system.cpu.statFuBusy::SimdFloatReduceCmp            0      0.00%     69.91% # attempts to use FU when none available (Count)
system.cpu.statFuBusy::SimdAes                      0      0.00%     69.91% # attempts to use FU when none available (Count)
system.cpu.statFuBusy::SimdAesMix                   0      0.00%     69.91% # attempts to use FU when none available (Count)
system.cpu.statFuBusy::SimdSha1Hash                 0      0.00%     69.91% # attempts to use FU when none available (Count)
system.cpu.statFuBusy::SimdSha1Hash2                0      0.00%     69.91% # attempts to use FU when none available (Count)
system.cpu.statFuBusy::SimdSha256Hash               0      0.00%     69.91% # attempts to use FU when none available (Count)
system.cpu.statFuBusy::SimdSha256Hash2              0      0.00%     69.91% # attempts to use FU when none available (Count)
system.cpu.statFuBusy::SimdShaSigma2                0      0.00%     69.91% # attempts to use FU when none available (Count)
system.cpu.statFuBusy::SimdShaSigma3                0      0.00%     69.91% # attempts to use FU when none available (Count)
system.cpu.statFuBusy::SimdPredAlu                  0      0.00%     69.91% # attempts to use FU when none available (Count)
system.cpu.statFuBusy::MemRead                     85     18.40%     88.31% # attempts to use FU when none available (Count)
system.cpu.statFuBusy::MemWrite                    54     11.69%    100.00% # attempts to use FU when none available (Count)
system.cpu.statFuBusy::FloatMemRead                 0      0.00%    100.00% # attempts to use FU when none available (Count)
system.cpu.statFuBusy::FloatMemWrite                0      0.00%    100.00% # attempts to use FU when none available (Count)
system.cpu.statFuBusy::IprAccess                    0      0.00%    100.00% # attempts to use FU when none available (Count)
system.cpu.statFuBusy::InstPrefetch                 0      0.00%    100.00% # attempts to use FU when none available (Count)
system.cpu.statIssuedInstType_0::No_OpClass           40      0.00%      0.00% # Number of instructions issued per FU type, per thread (Count)
system.cpu.statIssuedInstType_0::IntAlu      13083369     81.80%     81.80% # Number of instructions issued per FU type, per thread (Count)
system.cpu.statIssuedInstType_0::IntMult           24      0.00%     81.80% # Number of instructions issued per FU type, per thread (Count)
system.cpu.statIssuedInstType_0::IntDiv            95      0.00%     81.80% # Number of instructions issued per FU type, per thread (Count)
system.cpu.statIssuedInstType_0::FloatAdd            0      0.00%     81.80% # Number of instructions issued per FU type, per thread (Count)
system.cpu.statIssuedInstType_0::FloatCmp            0      0.00%     81.80% # Number of instructions issued per FU type, per thread (Count)
system.cpu.statIssuedInstType_0::FloatCvt            0      0.00%     81.80% # Number of instructions issued per FU type, per thread (Count)
system.cpu.statIssuedInstType_0::FloatMult            0      0.00%     81.80% # Number of instructions issued per FU type, per thread (Count)
system.cpu.statIssuedInstType_0::FloatMultAcc            0      0.00%     81.80% # Number of instructions issued per FU type, per thread (Count)
system.cpu.statIssuedInstType_0::FloatDiv            0      0.00%     81.80% # Number of instructions issued per FU type, per thread (Count)
system.cpu.statIssuedInstType_0::FloatMisc            0      0.00%     81.80% # Number of instructions issued per FU type, per thread (Count)
system.cpu.statIssuedInstType_0::FloatSqrt            0      0.00%     81.80% # Number of instructions issued per FU type, per thread (Count)
system.cpu.statIssuedInstType_0::SimdAdd            0      0.00%     81.80% # Number of instructions issued per FU type, per thread (Count)
system.cpu.statIssuedInstType_0::SimdAddAcc            0      0.00%     81.80% # Number of instructions issued per FU type, per thread (Count)
system.cpu.statIssuedInstType_0::SimdAlu            0      0.00%     81.80% # Number of instructions issued per FU type, per thread (Count)
system.cpu.statIssuedInstType_0::SimdCmp            0      0.00%     81.80% # Number of instructions issued per FU type, per thread (Count)
system.cpu.statIssuedInstType_0::SimdCvt            0      0.00%     81.80% # Number of instructions issued per FU type, per thread (Count)
system.cpu.statIssuedInstType_0::SimdMisc            0      0.00%     81.80% # Number of instructions issued per FU type, per thread (Count)
system.cpu.statIssuedInstType_0::SimdMult            0      0.00%     81.80% # Number of instructions issued per FU type, per thread (Count)
system.cpu.statIssuedInstType_0::SimdMultAcc            0      0.00%     81.80% # Number of instructions issued per FU type, per thread (Count)
system.cpu.statIssuedInstType_0::SimdShift            0      0.00%     81.80% # Number of instructions issued per FU type, per thread (Count)
system.cpu.statIssuedInstType_0::SimdShiftAcc            0      0.00%     81.80% # Number of instructions issued per FU type, per thread (Count)
system.cpu.statIssuedInstType_0::SimdDiv            0      0.00%     81.80% # Number of instructions issued per FU type, per thread (Count)
system.cpu.statIssuedInstType_0::SimdSqrt            0      0.00%     81.80% # Number of instructions issued per FU type, per thread (Count)
system.cpu.statIssuedInstType_0::SimdFloatAdd            0      0.00%     81.80% # Number of instructions issued per FU type, per thread (Count)
system.cpu.statIssuedInstType_0::SimdFloatAlu            0      0.00%     81.80% # Number of instructions issued per FU type, per thread (Count)
system.cpu.statIssuedInstType_0::SimdFloatCmp            0      0.00%     81.80% # Number of instructions issued per FU type, per thread (Count)
system.cpu.statIssuedInstType_0::SimdFloatCvt            0      0.00%     81.80% # Number of instructions issued per FU type, per thread (Count)
system.cpu.statIssuedInstType_0::SimdFloatDiv            0      0.00%     81.80% # Number of instructions issued per FU type, per thread (Count)
system.cpu.statIssuedInstType_0::SimdFloatMisc            0      0.00%     81.80% # Number of instructions issued per FU type, per thread (Count)
system.cpu.statIssuedInstType_0::SimdFloatMult            0      0.00%     81.80% # Number of instructions issued per FU type, per thread (Count)
system.cpu.statIssuedInstType_0::SimdFloatMultAcc            0      0.00%     81.80% # Number of instructions issued per FU type, per thread (Count)
system.cpu.statIssuedInstType_0::SimdFloatSqrt            0      0.00%     81.80% # Number of instructions issued per FU type, per thread (Count)
system.cpu.statIssuedInstType_0::SimdReduceAdd            0      0.00%     81.80% # Number of instructions issued per FU type, per thread (Count)
system.cpu.statIssuedInstType_0::SimdReduceAlu            0      0.00%     81.80% # Number of instructions issued per FU type, per thread (Count)
system.cpu.statIssuedInstType_0::SimdReduceCmp            0      0.00%     81.80% # Number of instructions issued per FU type, per thread (Count)
system.cpu.statIssuedInstType_0::SimdFloatReduceAdd            0      0.00%     81.80% # Number of instructions issued per FU type, per thread (Count)
system.cpu.statIssuedInstType_0::SimdFloatReduceCmp            0      0.00%     81.80% # Number of instructions issued per FU type, per thread (Count)
system.cpu.statIssuedInstType_0::SimdAes            0      0.00%     81.80% # Number of instructions issued per FU type, per thread (Count)
system.cpu.statIssuedInstType_0::SimdAesMix            0      0.00%     81.80% # Number of instructions issued per FU type, per thread (Count)
system.cpu.statIssuedInstType_0::SimdSha1Hash            0      0.00%     81.80% # Number of instructions issued per FU type, per thread (Count)
system.cpu.statIssuedInstType_0::SimdSha1Hash2            0      0.00%     81.80% # Number of instructions issued per FU type, per thread (Count)
system.cpu.statIssuedInstType_0::SimdSha256Hash            0      0.00%     81.80% # Number of instructions issued per FU type, per thread (Count)
system.cpu.statIssuedInstType_0::SimdSha256Hash2            0      0.00%     81.80% # Number of instructions issued per FU type, per thread (Count)
system.cpu.statIssuedInstType_0::SimdShaSigma2            0      0.00%     81.80% # Number of instructions issued per FU type, per thread (Count)
system.cpu.statIssuedInstType_0::SimdShaSigma3            0      0.00%     81.80% # Number of instructions issued per FU type, per thread (Count)
system.cpu.statIssuedInstType_0::SimdPredAlu            0      0.00%     81.80% # Number of instructions issued per FU type, per thread (Count)
system.cpu.statIssuedInstType_0::MemRead      1456150      9.10%     90.90% # Number of instructions issued per FU type, per thread (Count)
system.cpu.statIssuedInstType_0::MemWrite      1454985      9.10%    100.00% # Number of instructions issued per FU type, per thread (Count)
system.cpu.statIssuedInstType_0::FloatMemRead            0      0.00%    100.00% # Number of instructions issued per FU type, per thread (Count)
system.cpu.statIssuedInstType_0::FloatMemWrite            0      0.00%    100.00% # Number of instructions issued per FU type, per thread (Count)
system.cpu.statIssuedInstType_0::IprAccess            0      0.00%    100.00% # Number of instructions issued per FU type, per thread (Count)
system.cpu.statIssuedInstType_0::InstPrefetch            0      0.00%    100.00% # Number of instructions issued per FU type, per thread (Count)
system.cpu.statIssuedInstType_0::total       15994663                       # Number of instructions issued per FU type, per thread (Count)
system.cpu.issueRate                         0.878364                       # Inst issue rate ((Count/Cycle))
system.cpu.fuBusy                                 462                       # FU busy when requested (Count)
system.cpu.fuBusyRate                        0.000029                       # FU busy rate (busy events/executed inst) ((Count/Count))
system.cpu.intInstQueueReads                 50168111                       # Number of integer instruction queue reads (Count)
system.cpu.intInstQueueWrites                16281174                       # Number of integer instruction queue writes (Count)
system.cpu.intInstQueueWakeupAccesses        15968087                       # Number of integer instruction queue wakeup accesses (Count)
system.cpu.fpInstQueueReads                         0                       # Number of floating instruction queue reads (Count)
system.cpu.fpInstQueueWrites                        0                       # Number of floating instruction queue writes (Count)
system.cpu.fpInstQueueWakeupAccesses                0                       # Number of floating instruction queue wakeup accesses (Count)
system.cpu.vecInstQueueReads                        0                       # Number of vector instruction queue reads (Count)
system.cpu.vecInstQueueWrites                       0                       # Number of vector instruction queue writes (Count)
system.cpu.vecInstQueueWakeupAccesses               0                       # Number of vector instruction queue wakeup accesses (Count)
system.cpu.intAluAccesses                    15995085                       # Number of integer alu accesses (Count)
system.cpu.fpAluAccesses                            0                       # Number of floating point alu accesses (Count)
system.cpu.vecAluAccesses                           0                       # Number of vector alu accesses (Count)
system.cpu.idleCycles                               0                       # Number of cycles IEW is idle (Cycle)
system.cpu.squashCycles                          1951                       # Number of cycles IEW is squashing (Cycle)
system.cpu.blockCycles                          34212                       # Number of cycles IEW is blocking (Cycle)
system.cpu.unblockCycles                           12                       # Number of cycles IEW is unblocking (Cycle)
system.cpu.dispatchedInsts                   15999021                       # Number of instructions dispatched to IQ (Count)
system.cpu.dispSquashedInsts                       53                       # Number of squashed instructions skipped by dispatch (Count)
system.cpu.dispLoadInsts                      1456720                       # Number of dispatched load instructions (Count)
system.cpu.dispStoreInsts                     1455503                       # Number of dispatched store instructions (Count)
system.cpu.dispNonSpecInsts                        38                       # Number of dispatched non-speculative instructions (Count)
system.cpu.iqFullEvents                             6                       # Number of times the IQ has become full, causing a stall (Count)
system.cpu.lsqFullEvents                            0                       # Number of times the LSQ has become full, causing a stall (Count)
system.cpu.memOrderViolationEvents                 63                       # Number of memory order violations (Count)
system.cpu.predictedTakenIncorrect                 93                       # Number of branches that were predicted taken incorrectly (Count)
system.cpu.predictedNotTakenIncorrect             521                       # Number of branches that were predicted not taken incorrectly (Count)
system.cpu.branchMispredicts                      614                       # Number of branch mispredicts detected at execute (Count)
system.cpu.numInsts                          15993732                       # Number of executed instructions (Count)
system.cpu.numLoadInsts                       1455923                       # Number of load instructions executed (Count)
system.cpu.numSquashedInsts                       929                       # Number of squashed instructions skipped in execute (Count)
system.cpu.numSwp                                   0                       # Number of swp insts executed (Count)
system.cpu.numNop                                   0                       # Number of nop insts executed (Count)
system.cpu.numRefs                            2910780                       # Number of memory reference insts executed (Count)
system.cpu.numBranches                        1453593                       # Number of branches executed (Count)
system.cpu.numStoreInsts                      1454857                       # Number of stores executed (Count)
system.cpu.numRate                           0.878313                       # Inst execution rate ((Count/Cycle))
system.cpu.instsToCommit                     15993430                       # Cumulative count of insts sent to commit (Count)
system.cpu.writebackCount                    15968087                       # Cumulative count of insts written-back (Count)
system.cpu.producerInst                      12989849                       # Number of instructions producing a value (Count)
system.cpu.consumerInst                      20220513                       # Number of instructions consuming a value (Count)
system.cpu.wbRate                            0.876904                       # Insts written-back per cycle ((Count/Cycle))
system.cpu.wbFanout                          0.642409                       # Average fanout of values written-back ((Count/Count))
system.cpu.timesIdled                             263                       # Number of times that the entire CPU went into an idle state and unscheduled itself (Count)
system.cpu.idleCycles                           31435                       # Total number of cycles that the CPU has spent unscheduled due to idling (Cycle)
system.cpu.committedInsts                    10000000                       # Number of Instructions Simulated (Count)
system.cpu.committedOps                      15716915                       # Number of Ops (including micro ops) Simulated (Count)
system.cpu.cpi                               1.820961                       # CPI: Cycles Per Instruction ((Cycle/Count))
system.cpu.totalCpi                          1.820961                       # CPI: Total CPI of All Threads ((Cycle/Count))
system.cpu.ipc                               0.549161                       # IPC: Instructions Per Cycle ((Count/Cycle))
system.cpu.totalIpc                          0.549161                       # IPC: Total IPC of All Threads ((Count/Cycle))
system.cpu.intRegfileReads                   26167829                       # Number of integer regfile reads (Count)
system.cpu.intRegfileWrites                  13085010                       # Number of integer regfile writes (Count)
system.cpu.ccRegfileReads                     8718054                       # number of cc regfile reads (Count)
system.cpu.ccRegfileWrites                    8717436                       # number of cc regfile writes (Count)
system.cpu.miscRegfileReads                   5818342                       # number of misc regfile reads (Count)
system.cpu.miscRegfileWrites                        6                       # number of misc regfile writes (Count)
system.cpu.MemDepUnit__0.insertedLoads        1456720                       # Number of loads inserted to the mem dependence unit. (Count)
system.cpu.MemDepUnit__0.insertedStores       1455503                       # Number of stores inserted to the mem dependence unit. (Count)
system.cpu.MemDepUnit__0.conflictingLoads          191                       # Number of conflicting loads. (Count)
system.cpu.MemDepUnit__0.conflictingStores          112                       # Number of conflicting stores. (Count)
system.cpu.MemDepUnit__1.insertedLoads              0                       # Number of loads inserted to the mem dependence unit. (Count)
system.cpu.MemDepUnit__1.insertedStores             0                       # Number of stores inserted to the mem dependence unit. (Count)
system.cpu.MemDepUnit__1.conflictingLoads            0                       # Number of conflicting loads. (Count)
system.cpu.MemDepUnit__1.conflictingStores            0                       # Number of conflicting stores. (Count)
system.cpu.MemDepUnit__2.insertedLoads              0                       # Number of loads inserted to the mem dependence unit. (Count)
system.cpu.MemDepUnit__2.insertedStores             0                       # Number of stores inserted to the mem dependence unit. (Count)
system.cpu.MemDepUnit__2.conflictingLoads            0                       # Number of conflicting loads. (Count)
system.cpu.MemDepUnit__2.conflictingStores            0                       # Number of conflicting stores. (Count)
system.cpu.MemDepUnit__3.insertedLoads              0                       # Number of loads inserted to the mem dependence unit. (Count)
system.cpu.MemDepUnit__3.insertedStores             0                       # Number of stores inserted to the mem dependence unit. (Count)
system.cpu.MemDepUnit__3.conflictingLoads            0                       # Number of conflicting loads. (Count)
system.cpu.MemDepUnit__3.conflictingStores            0                       # Number of conflicting stores. (Count)
system.cpu.branchPred.lookups                 1462514                       # Number of BP lookups (Count)
system.cpu.branchPred.condPredicted           1461288                       # Number of conditional branches predicted (Count)
system.cpu.branchPred.condIncorrect               689                       # Number of conditional branches incorrect (Count)
system.cpu.branchPred.BTBLookups              1459477                       # Number of BTB lookups (Count)
system.cpu.branchPred.BTBHits                 1459080                       # Number of BTB hits (Count)
system.cpu.branchPred.BTBHitRatio            0.999728                       # BTB Hit Ratio (Ratio)
system.cpu.branchPred.RASUsed                     421                       # Number of times the RAS was used to get a target. (Count)
system.cpu.branchPred.RASIncorrect                 15                       # Number of incorrect RAS predictions. (Count)
system.cpu.branchPred.indirectLookups             246                       # Number of indirect predictor lookups. (Count)
system.cpu.branchPred.indirectHits                 11                       # Number of indirect target hits. (Count)
system.cpu.branchPred.indirectMisses              235                       # Number of indirect misses. (Count)
system.cpu.branchPred.indirectMispredicted           79                       # Number of mispredicted indirect branches. (Count)
system.cpu.branchPred.perceptron.lookups            0                       # Number of BP lookups (Count)
system.cpu.branchPred.perceptron.condPredicted            0                       # Number of conditional branches predicted (Count)
system.cpu.branchPred.perceptron.condIncorrect            0                       # Number of conditional branches incorrect (Count)
system.cpu.branchPred.perceptron.BTBLookups            0                       # Number of BTB lookups (Count)
system.cpu.branchPred.perceptron.BTBHits            0                       # Number of BTB hits (Count)
system.cpu.branchPred.perceptron.BTBHitRatio          nan                       # BTB Hit Ratio (Ratio)
system.cpu.branchPred.perceptron.RASUsed            0                       # Number of times the RAS was used to get a target. (Count)
system.cpu.branchPred.perceptron.RASIncorrect            0                       # Number of incorrect RAS predictions. (Count)
system.cpu.branchPred.perceptron.indirectLookups            0                       # Number of indirect predictor lookups. (Count)
system.cpu.branchPred.perceptron.indirectHits            0                       # Number of indirect target hits. (Count)
system.cpu.branchPred.perceptron.indirectMisses            0                       # Number of indirect misses. (Count)
system.cpu.branchPred.perceptron.indirectMispredicted            0                       # Number of mispredicted indirect branches. (Count)
system.cpu.branchPred.tage.lookups                  0                       # Number of BP lookups (Count)
system.cpu.branchPred.tage.condPredicted            0                       # Number of conditional branches predicted (Count)
system.cpu.branchPred.tage.condIncorrect            0                       # Number of conditional branches incorrect (Count)
system.cpu.branchPred.tage.BTBLookups               0                       # Number of BTB lookups (Count)
system.cpu.branchPred.tage.BTBHits                  0                       # Number of BTB hits (Count)
system.cpu.branchPred.tage.BTBHitRatio            nan                       # BTB Hit Ratio (Ratio)
system.cpu.branchPred.tage.RASUsed                  0                       # Number of times the RAS was used to get a target. (Count)
system.cpu.branchPred.tage.RASIncorrect             0                       # Number of incorrect RAS predictions. (Count)
system.cpu.branchPred.tage.indirectLookups            0                       # Number of indirect predictor lookups. (Count)
system.cpu.branchPred.tage.indirectHits             0                       # Number of indirect target hits. (Count)
system.cpu.branchPred.tage.indirectMisses            0                       # Number of indirect misses. (Count)
system.cpu.branchPred.tage.indirectMispredicted            0                       # Number of mispredicted indirect branches. (Count)
system.cpu.branchPred.tage.tage.longestMatchProviderCorrect           84                       # Number of times TAGE Longest Match is the provider and the prediction is correct (Count)
system.cpu.branchPred.tage.tage.altMatchProviderCorrect            5                       # Number of times TAGE Alt Match is the provider and the prediction is correct (Count)
system.cpu.branchPred.tage.tage.bimodalAltMatchProviderCorrect           11                       # Number of times TAGE Alt Match is the bimodal and it is the provider and the prediction is correct (Count)
system.cpu.branchPred.tage.tage.bimodalProviderCorrect      1428289                       # Number of times there are no hits on the TAGE tables and the bimodal prediction is correct (Count)
system.cpu.branchPred.tage.tage.longestMatchProviderWrong           37                       # Number of times TAGE Longest Match is the provider and the prediction is wrong (Count)
system.cpu.branchPred.tage.tage.altMatchProviderWrong            2                       # Number of times TAGE Alt Match is the provider and the prediction is wrong (Count)
system.cpu.branchPred.tage.tage.bimodalAltMatchProviderWrong            9                       # Number of times TAGE Alt Match is the bimodal and it is the provider and the prediction is wrong (Count)
system.cpu.branchPred.tage.tage.bimodalProviderWrong          317                       # Number of times there are no hits on the TAGE tables and the bimodal prediction is wrong (Count)
system.cpu.branchPred.tage.tage.altMatchProviderWouldHaveHit           23                       # Number of times TAGE Longest Match is the provider, the prediction is wrong and Alt Match prediction was correct (Count)
system.cpu.branchPred.tage.tage.longestMatchProviderWouldHaveHit            8                       # Number of times TAGE Alt Match is the provider, the prediction is wrong and Longest Match prediction was correct (Count)
system.cpu.branchPred.tage.tage.longestMatchProvider::0            0                       # TAGE provider for longest match (Count)
system.cpu.branchPred.tage.tage.longestMatchProvider::1           70                       # TAGE provider for longest match (Count)
system.cpu.branchPred.tage.tage.longestMatchProvider::2           36                       # TAGE provider for longest match (Count)
system.cpu.branchPred.tage.tage.longestMatchProvider::3           17                       # TAGE provider for longest match (Count)
system.cpu.branchPred.tage.tage.longestMatchProvider::4            5                       # TAGE provider for longest match (Count)
system.cpu.branchPred.tage.tage.altMatchProvider::0          110                       # TAGE provider for alt match (Count)
system.cpu.branchPred.tage.tage.altMatchProvider::1           14                       # TAGE provider for alt match (Count)
system.cpu.branchPred.tage.tage.altMatchProvider::2            1                       # TAGE provider for alt match (Count)
system.cpu.branchPred.tage.tage.altMatchProvider::3            3                       # TAGE provider for alt match (Count)
system.cpu.branchPred.tage.tage.altMatchProvider::4            0                       # TAGE provider for alt match (Count)
system.cpu.commit.commitSquashedInsts          282004                       # The number of squashed insts skipped by commit (Count)
system.cpu.commit.commitNonSpecStalls               4                       # The number of times commit has been forced to stall to communicate backwards (Count)
system.cpu.commit.branchMispredicts               495                       # The number of times a branch was mispredicted (Count)
system.cpu.commit.numCommittedDist::samples     18142484                       # Number of insts commited each cycle (Count)
system.cpu.commit.numCommittedDist::mean     0.866304                       # Number of insts commited each cycle (Count)
system.cpu.commit.numCommittedDist::stdev     1.628508                       # Number of insts commited each cycle (Count)
system.cpu.commit.numCommittedDist::underflows            0      0.00%      0.00% # Number of insts commited each cycle (Count)
system.cpu.commit.numCommittedDist::0        12952297     71.39%     71.39% # Number of insts commited each cycle (Count)
system.cpu.commit.numCommittedDist::1         1253081      6.91%     78.30% # Number of insts commited each cycle (Count)
system.cpu.commit.numCommittedDist::2           88124      0.49%     78.78% # Number of insts commited each cycle (Count)
system.cpu.commit.numCommittedDist::3         2420054     13.34%     92.12% # Number of insts commited each cycle (Count)
system.cpu.commit.numCommittedDist::4         1079218      5.95%     98.07% # Number of insts commited each cycle (Count)
system.cpu.commit.numCommittedDist::5             294      0.00%     98.07% # Number of insts commited each cycle (Count)
system.cpu.commit.numCommittedDist::6             187      0.00%     98.08% # Number of insts commited each cycle (Count)
system.cpu.commit.numCommittedDist::7           85872      0.47%     98.55% # Number of insts commited each cycle (Count)
system.cpu.commit.numCommittedDist::8          263357      1.45%    100.00% # Number of insts commited each cycle (Count)
system.cpu.commit.numCommittedDist::overflows            0      0.00%    100.00% # Number of insts commited each cycle (Count)
system.cpu.commit.numCommittedDist::min_value            0                       # Number of insts commited each cycle (Count)
system.cpu.commit.numCommittedDist::max_value            8                       # Number of insts commited each cycle (Count)
system.cpu.commit.numCommittedDist::total     18142484                       # Number of insts commited each cycle (Count)
system.cpu.commit.instsCommitted             10000000                       # Number of instructions committed (Count)
system.cpu.commit.opsCommitted               15716915                       # Number of ops (including micro ops) committed (Count)
system.cpu.commit.memRefs                     2858512                       # Number of memory references committed (Count)
system.cpu.commit.loads                       1429411                       # Number of loads committed (Count)
system.cpu.commit.amos                              0                       # Number of atomic instructions committed (Count)
system.cpu.commit.membars                           0                       # Number of memory barriers committed (Count)
system.cpu.commit.branches                    1429198                       # Number of branches committed (Count)
system.cpu.commit.vectorInstructions                0                       # Number of committed Vector instructions. (Count)
system.cpu.commit.floating                          0                       # Number of committed floating point instructions. (Count)
system.cpu.commit.integer                    15716880                       # Number of committed integer instructions. (Count)
system.cpu.commit.functionCalls                   168                       # Number of function calls committed. (Count)
system.cpu.commit.committedInstType_0::No_OpClass            3      0.00%      0.00% # Class of committed instruction (Count)
system.cpu.commit.committedInstType_0::IntAlu     12858293     81.81%     81.81% # Class of committed instruction (Count)
system.cpu.commit.committedInstType_0::IntMult           23      0.00%     81.81% # Class of committed instruction (Count)
system.cpu.commit.committedInstType_0::IntDiv           84      0.00%     81.81% # Class of committed instruction (Count)
system.cpu.commit.committedInstType_0::FloatAdd            0      0.00%     81.81% # Class of committed instruction (Count)
system.cpu.commit.committedInstType_0::FloatCmp            0      0.00%     81.81% # Class of committed instruction (Count)
system.cpu.commit.committedInstType_0::FloatCvt            0      0.00%     81.81% # Class of committed instruction (Count)
system.cpu.commit.committedInstType_0::FloatMult            0      0.00%     81.81% # Class of committed instruction (Count)
system.cpu.commit.committedInstType_0::FloatMultAcc            0      0.00%     81.81% # Class of committed instruction (Count)
system.cpu.commit.committedInstType_0::FloatDiv            0      0.00%     81.81% # Class of committed instruction (Count)
system.cpu.commit.committedInstType_0::FloatMisc            0      0.00%     81.81% # Class of committed instruction (Count)
system.cpu.commit.committedInstType_0::FloatSqrt            0      0.00%     81.81% # Class of committed instruction (Count)
system.cpu.commit.committedInstType_0::SimdAdd            0      0.00%     81.81% # Class of committed instruction (Count)
system.cpu.commit.committedInstType_0::SimdAddAcc            0      0.00%     81.81% # Class of committed instruction (Count)
system.cpu.commit.committedInstType_0::SimdAlu            0      0.00%     81.81% # Class of committed instruction (Count)
system.cpu.commit.committedInstType_0::SimdCmp            0      0.00%     81.81% # Class of committed instruction (Count)
system.cpu.commit.committedInstType_0::SimdCvt            0      0.00%     81.81% # Class of committed instruction (Count)
system.cpu.commit.committedInstType_0::SimdMisc            0      0.00%     81.81% # Class of committed instruction (Count)
system.cpu.commit.committedInstType_0::SimdMult            0      0.00%     81.81% # Class of committed instruction (Count)
system.cpu.commit.committedInstType_0::SimdMultAcc            0      0.00%     81.81% # Class of committed instruction (Count)
system.cpu.commit.committedInstType_0::SimdShift            0      0.00%     81.81% # Class of committed instruction (Count)
system.cpu.commit.committedInstType_0::SimdShiftAcc            0      0.00%     81.81% # Class of committed instruction (Count)
system.cpu.commit.committedInstType_0::SimdDiv            0      0.00%     81.81% # Class of committed instruction (Count)
system.cpu.commit.committedInstType_0::SimdSqrt            0      0.00%     81.81% # Class of committed instruction (Count)
system.cpu.commit.committedInstType_0::SimdFloatAdd            0      0.00%     81.81% # Class of committed instruction (Count)
system.cpu.commit.committedInstType_0::SimdFloatAlu            0      0.00%     81.81% # Class of committed instruction (Count)
system.cpu.commit.committedInstType_0::SimdFloatCmp            0      0.00%     81.81% # Class of committed instruction (Count)
system.cpu.commit.committedInstType_0::SimdFloatCvt            0      0.00%     81.81% # Class of committed instruction (Count)
system.cpu.commit.committedInstType_0::SimdFloatDiv            0      0.00%     81.81% # Class of committed instruction (Count)
system.cpu.commit.committedInstType_0::SimdFloatMisc            0      0.00%     81.81% # Class of committed instruction (Count)
system.cpu.commit.committedInstType_0::SimdFloatMult            0      0.00%     81.81% # Class of committed instruction (Count)
system.cpu.commit.committedInstType_0::SimdFloatMultAcc            0      0.00%     81.81% # Class of committed instruction (Count)
system.cpu.commit.committedInstType_0::SimdFloatSqrt            0      0.00%     81.81% # Class of committed instruction (Count)
system.cpu.commit.committedInstType_0::SimdReduceAdd            0      0.00%     81.81% # Class of committed instruction (Count)
system.cpu.commit.committedInstType_0::SimdReduceAlu            0      0.00%     81.81% # Class of committed instruction (Count)
system.cpu.commit.committedInstType_0::SimdReduceCmp            0      0.00%     81.81% # Class of committed instruction (Count)
system.cpu.commit.committedInstType_0::SimdFloatReduceAdd            0      0.00%     81.81% # Class of committed instruction (Count)
system.cpu.commit.committedInstType_0::SimdFloatReduceCmp            0      0.00%     81.81% # Class of committed instruction (Count)
system.cpu.commit.committedInstType_0::SimdAes            0      0.00%     81.81% # Class of committed instruction (Count)
system.cpu.commit.committedInstType_0::SimdAesMix            0      0.00%     81.81% # Class of committed instruction (Count)
system.cpu.commit.committedInstType_0::SimdSha1Hash            0      0.00%     81.81% # Class of committed instruction (Count)
system.cpu.commit.committedInstType_0::SimdSha1Hash2            0      0.00%     81.81% # Class of committed instruction (Count)
system.cpu.commit.committedInstType_0::SimdSha256Hash            0      0.00%     81.81% # Class of committed instruction (Count)
system.cpu.commit.committedInstType_0::SimdSha256Hash2            0      0.00%     81.81% # Class of committed instruction (Count)
system.cpu.commit.committedInstType_0::SimdShaSigma2            0      0.00%     81.81% # Class of committed instruction (Count)
system.cpu.commit.committedInstType_0::SimdShaSigma3            0      0.00%     81.81% # Class of committed instruction (Count)
system.cpu.commit.committedInstType_0::SimdPredAlu            0      0.00%     81.81% # Class of committed instruction (Count)
system.cpu.commit.committedInstType_0::MemRead      1429411      9.09%     90.91% # Class of committed instruction (Count)
system.cpu.commit.committedInstType_0::MemWrite      1429101      9.09%    100.00% # Class of committed instruction (Count)
system.cpu.commit.committedInstType_0::FloatMemRead            0      0.00%    100.00% # Class of committed instruction (Count)
system.cpu.commit.committedInstType_0::FloatMemWrite            0      0.00%    100.00% # Class of committed instruction (Count)
system.cpu.commit.committedInstType_0::IprAccess            0      0.00%    100.00% # Class of committed instruction (Count)
system.cpu.commit.committedInstType_0::InstPrefetch            0      0.00%    100.00% # Class of committed instruction (Count)
system.cpu.commit.committedInstType_0::total     15716915                       # Class of committed instruction (Count)
system.cpu.commit.commitEligibleSamples        263357                       # number cycles where commit BW limit reached (Cycle)
system.cpu.dcache.demandHits::cpu.data        2795114                       # number of demand (read+write) hits (Count)
system.cpu.dcache.demandHits::total           2795114                       # number of demand (read+write) hits (Count)
system.cpu.dcache.overallHits::cpu.data       2795114                       # number of overall hits (Count)
system.cpu.dcache.overallHits::total          2795114                       # number of overall hits (Count)
system.cpu.dcache.demandMisses::cpu.data        89407                       # number of demand (read+write) misses (Count)
system.cpu.dcache.demandMisses::total           89407                       # number of demand (read+write) misses (Count)
system.cpu.dcache.overallMisses::cpu.data        89407                       # number of overall misses (Count)
system.cpu.dcache.overallMisses::total          89407                       # number of overall misses (Count)
system.cpu.dcache.demandMissLatency::cpu.data   7409686500                       # number of demand (read+write) miss ticks (Tick)
system.cpu.dcache.demandMissLatency::total   7409686500                       # number of demand (read+write) miss ticks (Tick)
system.cpu.dcache.overallMissLatency::cpu.data   7409686500                       # number of overall miss ticks (Tick)
system.cpu.dcache.overallMissLatency::total   7409686500                       # number of overall miss ticks (Tick)
system.cpu.dcache.demandAccesses::cpu.data      2884521                       # number of demand (read+write) accesses (Count)
system.cpu.dcache.demandAccesses::total       2884521                       # number of demand (read+write) accesses (Count)
system.cpu.dcache.overallAccesses::cpu.data      2884521                       # number of overall (read+write) accesses (Count)
system.cpu.dcache.overallAccesses::total      2884521                       # number of overall (read+write) accesses (Count)
system.cpu.dcache.demandMissRate::cpu.data     0.030995                       # miss rate for demand accesses (Ratio)
system.cpu.dcache.demandMissRate::total      0.030995                       # miss rate for demand accesses (Ratio)
system.cpu.dcache.overallMissRate::cpu.data     0.030995                       # miss rate for overall accesses (Ratio)
system.cpu.dcache.overallMissRate::total     0.030995                       # miss rate for overall accesses (Ratio)
system.cpu.dcache.demandAvgMissLatency::cpu.data 82875.910164                       # average overall miss latency ((Cycle/Count))
system.cpu.dcache.demandAvgMissLatency::total 82875.910164                       # average overall miss latency ((Cycle/Count))
system.cpu.dcache.overallAvgMissLatency::cpu.data 82875.910164                       # average overall miss latency ((Cycle/Count))
system.cpu.dcache.overallAvgMissLatency::total 82875.910164                       # average overall miss latency ((Cycle/Count))
system.cpu.dcache.blockedCycles::no_mshrs           93                       # number of cycles access was blocked (Cycle)
system.cpu.dcache.blockedCycles::no_targets            0                       # number of cycles access was blocked (Cycle)
system.cpu.dcache.blockedCauses::no_mshrs            5                       # number of times access was blocked (Count)
system.cpu.dcache.blockedCauses::no_targets            0                       # number of times access was blocked (Count)
system.cpu.dcache.avgBlocked::no_mshrs      18.600000                       # average number of cycles each access was blocked ((Cycle/Count))
system.cpu.dcache.avgBlocked::no_targets          nan                       # average number of cycles each access was blocked ((Cycle/Count))
system.cpu.dcache.writebacks::writebacks        88776                       # number of writebacks (Count)
system.cpu.dcache.writebacks::total             88776                       # number of writebacks (Count)
system.cpu.dcache.demandMshrHits::cpu.data           71                       # number of demand (read+write) MSHR hits (Count)
system.cpu.dcache.demandMshrHits::total            71                       # number of demand (read+write) MSHR hits (Count)
system.cpu.dcache.overallMshrHits::cpu.data           71                       # number of overall MSHR hits (Count)
system.cpu.dcache.overallMshrHits::total           71                       # number of overall MSHR hits (Count)
system.cpu.dcache.demandMshrMisses::cpu.data        89336                       # number of demand (read+write) MSHR misses (Count)
system.cpu.dcache.demandMshrMisses::total        89336                       # number of demand (read+write) MSHR misses (Count)
system.cpu.dcache.overallMshrMisses::cpu.data        89336                       # number of overall MSHR misses (Count)
system.cpu.dcache.overallMshrMisses::total        89336                       # number of overall MSHR misses (Count)
system.cpu.dcache.demandMshrMissLatency::cpu.data   7315873500                       # number of demand (read+write) MSHR miss ticks (Tick)
system.cpu.dcache.demandMshrMissLatency::total   7315873500                       # number of demand (read+write) MSHR miss ticks (Tick)
system.cpu.dcache.overallMshrMissLatency::cpu.data   7315873500                       # number of overall MSHR miss ticks (Tick)
system.cpu.dcache.overallMshrMissLatency::total   7315873500                       # number of overall MSHR miss ticks (Tick)
system.cpu.dcache.demandMshrMissRate::cpu.data     0.030971                       # mshr miss ratio for demand accesses (Ratio)
system.cpu.dcache.demandMshrMissRate::total     0.030971                       # mshr miss ratio for demand accesses (Ratio)
system.cpu.dcache.overallMshrMissRate::cpu.data     0.030971                       # mshr miss ratio for overall accesses (Ratio)
system.cpu.dcache.overallMshrMissRate::total     0.030971                       # mshr miss ratio for overall accesses (Ratio)
system.cpu.dcache.demandAvgMshrMissLatency::cpu.data 81891.661816                       # average overall mshr miss latency ((Cycle/Count))
system.cpu.dcache.demandAvgMshrMissLatency::total 81891.661816                       # average overall mshr miss latency ((Cycle/Count))
system.cpu.dcache.overallAvgMshrMissLatency::cpu.data 81891.661816                       # average overall mshr miss latency ((Cycle/Count))
system.cpu.dcache.overallAvgMshrMissLatency::total 81891.661816                       # average overall mshr miss latency ((Cycle/Count))
system.cpu.dcache.replacements                  88819                       # number of replacements (Count)
system.cpu.dcache.ReadReq.hits::cpu.data      1455312                       # number of ReadReq hits (Count)
system.cpu.dcache.ReadReq.hits::total         1455312                       # number of ReadReq hits (Count)
system.cpu.dcache.ReadReq.misses::cpu.data          138                       # number of ReadReq misses (Count)
system.cpu.dcache.ReadReq.misses::total           138                       # number of ReadReq misses (Count)
system.cpu.dcache.ReadReq.missLatency::cpu.data     10017000                       # number of ReadReq miss ticks (Tick)
system.cpu.dcache.ReadReq.missLatency::total     10017000                       # number of ReadReq miss ticks (Tick)
system.cpu.dcache.ReadReq.accesses::cpu.data      1455450                       # number of ReadReq accesses(hits+misses) (Count)
system.cpu.dcache.ReadReq.accesses::total      1455450                       # number of ReadReq accesses(hits+misses) (Count)
system.cpu.dcache.ReadReq.missRate::cpu.data     0.000095                       # miss rate for ReadReq accesses (Ratio)
system.cpu.dcache.ReadReq.missRate::total     0.000095                       # miss rate for ReadReq accesses (Ratio)
system.cpu.dcache.ReadReq.avgMissLatency::cpu.data 72586.956522                       # average ReadReq miss latency ((Tick/Count))
system.cpu.dcache.ReadReq.avgMissLatency::total 72586.956522                       # average ReadReq miss latency ((Tick/Count))
system.cpu.dcache.ReadReq.mshrHits::cpu.data           68                       # number of ReadReq MSHR hits (Count)
system.cpu.dcache.ReadReq.mshrHits::total           68                       # number of ReadReq MSHR hits (Count)
system.cpu.dcache.ReadReq.mshrMisses::cpu.data           70                       # number of ReadReq MSHR misses (Count)
system.cpu.dcache.ReadReq.mshrMisses::total           70                       # number of ReadReq MSHR misses (Count)
system.cpu.dcache.ReadReq.mshrMissLatency::cpu.data      5722000                       # number of ReadReq MSHR miss ticks (Tick)
system.cpu.dcache.ReadReq.mshrMissLatency::total      5722000                       # number of ReadReq MSHR miss ticks (Tick)
system.cpu.dcache.ReadReq.mshrMissRate::cpu.data     0.000048                       # mshr miss rate for ReadReq accesses (Ratio)
system.cpu.dcache.ReadReq.mshrMissRate::total     0.000048                       # mshr miss rate for ReadReq accesses (Ratio)
system.cpu.dcache.ReadReq.avgMshrMissLatency::cpu.data 81742.857143                       # average ReadReq mshr miss latency ((Tick/Count))
system.cpu.dcache.ReadReq.avgMshrMissLatency::total 81742.857143                       # average ReadReq mshr miss latency ((Tick/Count))
system.cpu.dcache.WriteReq.hits::cpu.data      1339802                       # number of WriteReq hits (Count)
system.cpu.dcache.WriteReq.hits::total        1339802                       # number of WriteReq hits (Count)
system.cpu.dcache.WriteReq.misses::cpu.data        89269                       # number of WriteReq misses (Count)
system.cpu.dcache.WriteReq.misses::total        89269                       # number of WriteReq misses (Count)
system.cpu.dcache.WriteReq.missLatency::cpu.data   7399669500                       # number of WriteReq miss ticks (Tick)
system.cpu.dcache.WriteReq.missLatency::total   7399669500                       # number of WriteReq miss ticks (Tick)
system.cpu.dcache.WriteReq.accesses::cpu.data      1429071                       # number of WriteReq accesses(hits+misses) (Count)
system.cpu.dcache.WriteReq.accesses::total      1429071                       # number of WriteReq accesses(hits+misses) (Count)
system.cpu.dcache.WriteReq.missRate::cpu.data     0.062466                       # miss rate for WriteReq accesses (Ratio)
system.cpu.dcache.WriteReq.missRate::total     0.062466                       # miss rate for WriteReq accesses (Ratio)
system.cpu.dcache.WriteReq.avgMissLatency::cpu.data 82891.815748                       # average WriteReq miss latency ((Tick/Count))
system.cpu.dcache.WriteReq.avgMissLatency::total 82891.815748                       # average WriteReq miss latency ((Tick/Count))
system.cpu.dcache.WriteReq.mshrHits::cpu.data            3                       # number of WriteReq MSHR hits (Count)
system.cpu.dcache.WriteReq.mshrHits::total            3                       # number of WriteReq MSHR hits (Count)
system.cpu.dcache.WriteReq.mshrMisses::cpu.data        89266                       # number of WriteReq MSHR misses (Count)
system.cpu.dcache.WriteReq.mshrMisses::total        89266                       # number of WriteReq MSHR misses (Count)
system.cpu.dcache.WriteReq.mshrMissLatency::cpu.data   7310151500                       # number of WriteReq MSHR miss ticks (Tick)
system.cpu.dcache.WriteReq.mshrMissLatency::total   7310151500                       # number of WriteReq MSHR miss ticks (Tick)
system.cpu.dcache.WriteReq.mshrMissRate::cpu.data     0.062464                       # mshr miss rate for WriteReq accesses (Ratio)
system.cpu.dcache.WriteReq.mshrMissRate::total     0.062464                       # mshr miss rate for WriteReq accesses (Ratio)
system.cpu.dcache.WriteReq.avgMshrMissLatency::cpu.data 81891.778505                       # average WriteReq mshr miss latency ((Tick/Count))
system.cpu.dcache.WriteReq.avgMshrMissLatency::total 81891.778505                       # average WriteReq mshr miss latency ((Tick/Count))
system.cpu.dcache.power_state.pwrStateResidencyTicks::UNDEFINED   9104804000                       # Cumulative time (in ticks) in various power states (Tick)
system.cpu.dcache.tags.tagsInUse           509.772120                       # Average ticks per tags in use ((Tick/Count))
system.cpu.dcache.tags.totalRefs              2884449                       # Total number of references to valid blocks. (Count)
system.cpu.dcache.tags.sampledRefs              89331                       # Sample count of references to valid blocks. (Count)
system.cpu.dcache.tags.avgRefs              32.289452                       # Average number of references to valid blocks. ((Count/Count))
system.cpu.dcache.tags.warmupTick              176500                       # The tick when the warmup percentage was hit. (Tick)
system.cpu.dcache.tags.occupancies::cpu.data   509.772120                       # Average occupied blocks per tick, per requestor ((Count/Tick))
system.cpu.dcache.tags.avgOccs::cpu.data     0.995649                       # Average percentage of cache occupancy ((Ratio/Tick))
system.cpu.dcache.tags.avgOccs::total        0.995649                       # Average percentage of cache occupancy ((Ratio/Tick))
system.cpu.dcache.tags.occupanciesTaskId::1024          512                       # Occupied blocks per task id (Count)
system.cpu.dcache.tags.ageTaskId_1024::0           99                       # Occupied blocks per task id, per block age (Count)
system.cpu.dcache.tags.ageTaskId_1024::1          412                       # Occupied blocks per task id, per block age (Count)
system.cpu.dcache.tags.ageTaskId_1024::3            1                       # Occupied blocks per task id, per block age (Count)
system.cpu.dcache.tags.ratioOccsTaskId::1024            1                       # Ratio of occupied blocks and all blocks, per task id (Ratio)
system.cpu.dcache.tags.tagAccesses           11627415                       # Number of tag accesses (Count)
system.cpu.dcache.tags.dataAccesses          11627415                       # Number of data accesses (Count)
system.cpu.dcache.tags.power_state.pwrStateResidencyTicks::UNDEFINED   9104804000                       # Cumulative time (in ticks) in various power states (Tick)
system.cpu.decode.idleCycles                  2300537                       # Number of cycles decode is idle (Cycle)
system.cpu.decode.blockedCycles              11958475                       # Number of cycles decode is blocked (Cycle)
system.cpu.decode.runCycles                   3739799                       # Number of cycles decode is running (Cycle)
system.cpu.decode.unblockCycles                177412                       # Number of cycles decode is unblocking (Cycle)
system.cpu.decode.squashCycles                   1951                       # Number of cycles decode is squashing (Cycle)
system.cpu.decode.branchResolved              1452253                       # Number of times decode resolved a branch (Count)
system.cpu.decode.branchMispred                   213                       # Number of times decode detected a branch misprediction (Count)
system.cpu.decode.decodedInsts               16009025                       # Number of instructions handled by decode (Count)
system.cpu.decode.squashedInsts                  1138                       # Number of squashed instructions handled by decode (Count)
system.cpu.dtb_walker_cache.blockedCycles::no_mshrs            0                       # number of cycles access was blocked (Cycle)
system.cpu.dtb_walker_cache.blockedCycles::no_targets            0                       # number of cycles access was blocked (Cycle)
system.cpu.dtb_walker_cache.blockedCauses::no_mshrs            0                       # number of times access was blocked (Count)
system.cpu.dtb_walker_cache.blockedCauses::no_targets            0                       # number of times access was blocked (Count)
system.cpu.dtb_walker_cache.avgBlocked::no_mshrs          nan                       # average number of cycles each access was blocked ((Cycle/Count))
system.cpu.dtb_walker_cache.avgBlocked::no_targets          nan                       # average number of cycles each access was blocked ((Cycle/Count))
system.cpu.dtb_walker_cache.replacements            0                       # number of replacements (Count)
system.cpu.dtb_walker_cache.power_state.pwrStateResidencyTicks::UNDEFINED   9104804000                       # Cumulative time (in ticks) in various power states (Tick)
system.cpu.dtb_walker_cache.tags.tagsInUse            0                       # Average ticks per tags in use ((Tick/Count))
system.cpu.dtb_walker_cache.tags.totalRefs            0                       # Total number of references to valid blocks. (Count)
system.cpu.dtb_walker_cache.tags.sampledRefs            0                       # Sample count of references to valid blocks. (Count)
system.cpu.dtb_walker_cache.tags.avgRefs          nan                       # Average number of references to valid blocks. ((Count/Count))
system.cpu.dtb_walker_cache.tags.warmupTick            0                       # The tick when the warmup percentage was hit. (Tick)
system.cpu.dtb_walker_cache.tags.tagAccesses            0                       # Number of tag accesses (Count)
system.cpu.dtb_walker_cache.tags.dataAccesses            0                       # Number of data accesses (Count)
system.cpu.dtb_walker_cache.tags.power_state.pwrStateResidencyTicks::UNDEFINED   9104804000                       # Cumulative time (in ticks) in various power states (Tick)
system.cpu.fetch.icacheStallCycles            2935460                       # Number of cycles fetch is stalled on an Icache miss (Cycle)
system.cpu.fetch.insts                       10229622                       # Number of instructions fetch has processed (Count)
system.cpu.fetch.branches                     1462514                       # Number of branches that fetch encountered (Count)
system.cpu.fetch.predictedBranches            1459512                       # Number of branches that fetch has predicted taken (Count)
system.cpu.fetch.cycles                      15240270                       # Number of cycles fetch has run and was not squashing or blocked (Cycle)
system.cpu.fetch.squashCycles                    4320                       # Number of cycles fetch has spent squashing (Cycle)
system.cpu.fetch.miscStallCycles                   30                       # Number of cycles fetch has spent waiting on interrupts, or bad addresses, or out of MSHRs (Cycle)
system.cpu.fetch.pendingTrapStallCycles           254                       # Number of stall cycles due to pending traps (Cycle)
system.cpu.fetch.cacheLines                   2921580                       # Number of cache lines fetched (Count)
system.cpu.fetch.icacheSquashes                   361                       # Number of outstanding Icache misses that were squashed (Count)
system.cpu.fetch.nisnDist::samples           18178174                       # Number of instructions fetched each cycle (Total) (Count)
system.cpu.fetch.nisnDist::mean              0.884588                       # Number of instructions fetched each cycle (Total) (Count)
system.cpu.fetch.nisnDist::stdev             2.183265                       # Number of instructions fetched each cycle (Total) (Count)
system.cpu.fetch.nisnDist::underflows               0      0.00%      0.00% # Number of instructions fetched each cycle (Total) (Count)
system.cpu.fetch.nisnDist::0                 13795264     75.89%     75.89% # Number of instructions fetched each cycle (Total) (Count)
system.cpu.fetch.nisnDist::1                  1459656      8.03%     83.92% # Number of instructions fetched each cycle (Total) (Count)
system.cpu.fetch.nisnDist::2                  1459718      8.03%     91.95% # Number of instructions fetched each cycle (Total) (Count)
system.cpu.fetch.nisnDist::3                      448      0.00%     91.95% # Number of instructions fetched each cycle (Total) (Count)
system.cpu.fetch.nisnDist::4                      399      0.00%     91.95% # Number of instructions fetched each cycle (Total) (Count)
system.cpu.fetch.nisnDist::5                      274      0.00%     91.96% # Number of instructions fetched each cycle (Total) (Count)
system.cpu.fetch.nisnDist::6                      375      0.00%     91.96% # Number of instructions fetched each cycle (Total) (Count)
system.cpu.fetch.nisnDist::7                     1774      0.01%     91.97% # Number of instructions fetched each cycle (Total) (Count)
system.cpu.fetch.nisnDist::8                  1460266      8.03%    100.00% # Number of instructions fetched each cycle (Total) (Count)
system.cpu.fetch.nisnDist::overflows                0      0.00%    100.00% # Number of instructions fetched each cycle (Total) (Count)
system.cpu.fetch.nisnDist::min_value                0                       # Number of instructions fetched each cycle (Total) (Count)
system.cpu.fetch.nisnDist::max_value                8                       # Number of instructions fetched each cycle (Total) (Count)
system.cpu.fetch.nisnDist::total             18178174                       # Number of instructions fetched each cycle (Total) (Count)
system.cpu.fetch.branchRate                  0.080316                       # Number of branch fetches per cycle (Ratio)
system.cpu.fetch.rate                        0.561771                       # Number of inst fetches per cycle ((Count/Cycle))
system.cpu.icache.demandHits::cpu.inst        2921022                       # number of demand (read+write) hits (Count)
system.cpu.icache.demandHits::total           2921022                       # number of demand (read+write) hits (Count)
system.cpu.icache.overallHits::cpu.inst       2921022                       # number of overall hits (Count)
system.cpu.icache.overallHits::total          2921022                       # number of overall hits (Count)
system.cpu.icache.demandMisses::cpu.inst          558                       # number of demand (read+write) misses (Count)
system.cpu.icache.demandMisses::total             558                       # number of demand (read+write) misses (Count)
system.cpu.icache.overallMisses::cpu.inst          558                       # number of overall misses (Count)
system.cpu.icache.overallMisses::total            558                       # number of overall misses (Count)
system.cpu.icache.demandMissLatency::cpu.inst     41713500                       # number of demand (read+write) miss ticks (Tick)
system.cpu.icache.demandMissLatency::total     41713500                       # number of demand (read+write) miss ticks (Tick)
system.cpu.icache.overallMissLatency::cpu.inst     41713500                       # number of overall miss ticks (Tick)
system.cpu.icache.overallMissLatency::total     41713500                       # number of overall miss ticks (Tick)
system.cpu.icache.demandAccesses::cpu.inst      2921580                       # number of demand (read+write) accesses (Count)
system.cpu.icache.demandAccesses::total       2921580                       # number of demand (read+write) accesses (Count)
system.cpu.icache.overallAccesses::cpu.inst      2921580                       # number of overall (read+write) accesses (Count)
system.cpu.icache.overallAccesses::total      2921580                       # number of overall (read+write) accesses (Count)
system.cpu.icache.demandMissRate::cpu.inst     0.000191                       # miss rate for demand accesses (Ratio)
system.cpu.icache.demandMissRate::total      0.000191                       # miss rate for demand accesses (Ratio)
system.cpu.icache.overallMissRate::cpu.inst     0.000191                       # miss rate for overall accesses (Ratio)
system.cpu.icache.overallMissRate::total     0.000191                       # miss rate for overall accesses (Ratio)
system.cpu.icache.demandAvgMissLatency::cpu.inst 74755.376344                       # average overall miss latency ((Cycle/Count))
system.cpu.icache.demandAvgMissLatency::total 74755.376344                       # average overall miss latency ((Cycle/Count))
system.cpu.icache.overallAvgMissLatency::cpu.inst 74755.376344                       # average overall miss latency ((Cycle/Count))
system.cpu.icache.overallAvgMissLatency::total 74755.376344                       # average overall miss latency ((Cycle/Count))
system.cpu.icache.blockedCycles::no_mshrs          184                       # number of cycles access was blocked (Cycle)
system.cpu.icache.blockedCycles::no_targets            0                       # number of cycles access was blocked (Cycle)
system.cpu.icache.blockedCauses::no_mshrs            3                       # number of times access was blocked (Count)
system.cpu.icache.blockedCauses::no_targets            0                       # number of times access was blocked (Count)
system.cpu.icache.avgBlocked::no_mshrs      61.333333                       # average number of cycles each access was blocked ((Cycle/Count))
system.cpu.icache.avgBlocked::no_targets          nan                       # average number of cycles each access was blocked ((Cycle/Count))
system.cpu.icache.writebacks::writebacks           35                       # number of writebacks (Count)
system.cpu.icache.writebacks::total                35                       # number of writebacks (Count)
system.cpu.icache.demandMshrHits::cpu.inst          151                       # number of demand (read+write) MSHR hits (Count)
system.cpu.icache.demandMshrHits::total           151                       # number of demand (read+write) MSHR hits (Count)
system.cpu.icache.overallMshrHits::cpu.inst          151                       # number of overall MSHR hits (Count)
system.cpu.icache.overallMshrHits::total          151                       # number of overall MSHR hits (Count)
system.cpu.icache.demandMshrMisses::cpu.inst          407                       # number of demand (read+write) MSHR misses (Count)
system.cpu.icache.demandMshrMisses::total          407                       # number of demand (read+write) MSHR misses (Count)
system.cpu.icache.overallMshrMisses::cpu.inst          407                       # number of overall MSHR misses (Count)
system.cpu.icache.overallMshrMisses::total          407                       # number of overall MSHR misses (Count)
system.cpu.icache.demandMshrMissLatency::cpu.inst     32198000                       # number of demand (read+write) MSHR miss ticks (Tick)
system.cpu.icache.demandMshrMissLatency::total     32198000                       # number of demand (read+write) MSHR miss ticks (Tick)
system.cpu.icache.overallMshrMissLatency::cpu.inst     32198000                       # number of overall MSHR miss ticks (Tick)
system.cpu.icache.overallMshrMissLatency::total     32198000                       # number of overall MSHR miss ticks (Tick)
system.cpu.icache.demandMshrMissRate::cpu.inst     0.000139                       # mshr miss ratio for demand accesses (Ratio)
system.cpu.icache.demandMshrMissRate::total     0.000139                       # mshr miss ratio for demand accesses (Ratio)
system.cpu.icache.overallMshrMissRate::cpu.inst     0.000139                       # mshr miss ratio for overall accesses (Ratio)
system.cpu.icache.overallMshrMissRate::total     0.000139                       # mshr miss ratio for overall accesses (Ratio)
system.cpu.icache.demandAvgMshrMissLatency::cpu.inst 79110.565111                       # average overall mshr miss latency ((Cycle/Count))
system.cpu.icache.demandAvgMshrMissLatency::total 79110.565111                       # average overall mshr miss latency ((Cycle/Count))
system.cpu.icache.overallAvgMshrMissLatency::cpu.inst 79110.565111                       # average overall mshr miss latency ((Cycle/Count))
system.cpu.icache.overallAvgMshrMissLatency::total 79110.565111                       # average overall mshr miss latency ((Cycle/Count))
system.cpu.icache.replacements                     35                       # number of replacements (Count)
system.cpu.icache.ReadReq.hits::cpu.inst      2921022                       # number of ReadReq hits (Count)
system.cpu.icache.ReadReq.hits::total         2921022                       # number of ReadReq hits (Count)
system.cpu.icache.ReadReq.misses::cpu.inst          558                       # number of ReadReq misses (Count)
system.cpu.icache.ReadReq.misses::total           558                       # number of ReadReq misses (Count)
system.cpu.icache.ReadReq.missLatency::cpu.inst     41713500                       # number of ReadReq miss ticks (Tick)
system.cpu.icache.ReadReq.missLatency::total     41713500                       # number of ReadReq miss ticks (Tick)
system.cpu.icache.ReadReq.accesses::cpu.inst      2921580                       # number of ReadReq accesses(hits+misses) (Count)
system.cpu.icache.ReadReq.accesses::total      2921580                       # number of ReadReq accesses(hits+misses) (Count)
system.cpu.icache.ReadReq.missRate::cpu.inst     0.000191                       # miss rate for ReadReq accesses (Ratio)
system.cpu.icache.ReadReq.missRate::total     0.000191                       # miss rate for ReadReq accesses (Ratio)
system.cpu.icache.ReadReq.avgMissLatency::cpu.inst 74755.376344                       # average ReadReq miss latency ((Tick/Count))
system.cpu.icache.ReadReq.avgMissLatency::total 74755.376344                       # average ReadReq miss latency ((Tick/Count))
system.cpu.icache.ReadReq.mshrHits::cpu.inst          151                       # number of ReadReq MSHR hits (Count)
system.cpu.icache.ReadReq.mshrHits::total          151                       # number of ReadReq MSHR hits (Count)
system.cpu.icache.ReadReq.mshrMisses::cpu.inst          407                       # number of ReadReq MSHR misses (Count)
system.cpu.icache.ReadReq.mshrMisses::total          407                       # number of ReadReq MSHR misses (Count)
system.cpu.icache.ReadReq.mshrMissLatency::cpu.inst     32198000                       # number of ReadReq MSHR miss ticks (Tick)
system.cpu.icache.ReadReq.mshrMissLatency::total     32198000                       # number of ReadReq MSHR miss ticks (Tick)
system.cpu.icache.ReadReq.mshrMissRate::cpu.inst     0.000139                       # mshr miss rate for ReadReq accesses (Ratio)
system.cpu.icache.ReadReq.mshrMissRate::total     0.000139                       # mshr miss rate for ReadReq accesses (Ratio)
system.cpu.icache.ReadReq.avgMshrMissLatency::cpu.inst 79110.565111                       # average ReadReq mshr miss latency ((Tick/Count))
system.cpu.icache.ReadReq.avgMshrMissLatency::total 79110.565111                       # average ReadReq mshr miss latency ((Tick/Count))
system.cpu.icache.power_state.pwrStateResidencyTicks::UNDEFINED   9104804000                       # Cumulative time (in ticks) in various power states (Tick)
system.cpu.icache.tags.tagsInUse           367.426481                       # Average ticks per tags in use ((Tick/Count))
system.cpu.icache.tags.totalRefs              2921429                       # Total number of references to valid blocks. (Count)
system.cpu.icache.tags.sampledRefs                407                       # Sample count of references to valid blocks. (Count)
system.cpu.icache.tags.avgRefs            7177.958231                       # Average number of references to valid blocks. ((Count/Count))
system.cpu.icache.tags.warmupTick               87500                       # The tick when the warmup percentage was hit. (Tick)
system.cpu.icache.tags.occupancies::cpu.inst   367.426481                       # Average occupied blocks per tick, per requestor ((Count/Tick))
system.cpu.icache.tags.avgOccs::cpu.inst     0.717630                       # Average percentage of cache occupancy ((Ratio/Tick))
system.cpu.icache.tags.avgOccs::total        0.717630                       # Average percentage of cache occupancy ((Ratio/Tick))
system.cpu.icache.tags.occupanciesTaskId::1024          368                       # Occupied blocks per task id (Count)
system.cpu.icache.tags.ageTaskId_1024::3          368                       # Occupied blocks per task id, per block age (Count)
system.cpu.icache.tags.ratioOccsTaskId::1024     0.718750                       # Ratio of occupied blocks and all blocks, per task id (Ratio)
system.cpu.icache.tags.tagAccesses           11686727                       # Number of tag accesses (Count)
[...]
system.mem_ctrls.dram.perBankWrBursts::14         5278                       # Per bank write bursts (Count)
system.mem_ctrls.dram.perBankWrBursts::15         5248                       # Per bank write bursts (Count)
system.mem_ctrls.dram.totQLat               930909750                       # Total ticks spent queuing (Tick)
system.mem_ctrls.dram.totBusLat             448650000                       # Total ticks spent in databus transfers (Tick)
system.mem_ctrls.dram.totMemAccLat         2613347250                       # Total ticks spent from burst creation until serviced by the DRAM (Tick)
system.mem_ctrls.dram.avgQLat                10374.57                       # Average queueing delay per DRAM burst ((Tick/Count))
system.mem_ctrls.dram.avgBusLat               5000.00                       # Average bus latency per DRAM burst ((Tick/Count))
system.mem_ctrls.dram.avgMemAccLat           29124.57                       # Average memory access latency per DRAM burst ((Tick/Count))
system.mem_ctrls.dram.readRowHits               82341                       # Number of row buffer hits during reads (Count)
system.mem_ctrls.dram.writeRowHits              79113                       # Number of row buffer hits during writes (Count)
system.mem_ctrls.dram.readRowHitRate            91.77                       # Row buffer hit rate for reads (Ratio)
system.mem_ctrls.dram.writeRowHitRate           92.89                       # Row buffer hit rate for writes (Ratio)
system.mem_ctrls.dram.bytesPerActivate::samples        13440                       # Bytes accessed per row activation (Byte)
system.mem_ctrls.dram.bytesPerActivate::mean   832.785714                       # Bytes accessed per row activation (Byte)
system.mem_ctrls.dram.bytesPerActivate::gmean   719.235861                       # Bytes accessed per row activation (Byte)
system.mem_ctrls.dram.bytesPerActivate::stdev   308.881246                       # Bytes accessed per row activation (Byte)
system.mem_ctrls.dram.bytesPerActivate::0-127          324      2.41%      2.41% # Bytes accessed per row activation (Byte)
system.mem_ctrls.dram.bytesPerActivate::128-255          965      7.18%      9.59% # Bytes accessed per row activation (Byte)
system.mem_ctrls.dram.bytesPerActivate::256-383          553      4.11%     13.71% # Bytes accessed per row activation (Byte)
system.mem_ctrls.dram.bytesPerActivate::384-511          606      4.51%     18.21% # Bytes accessed per row activation (Byte)
system.mem_ctrls.dram.bytesPerActivate::512-639          496      3.69%     21.90% # Bytes accessed per row activation (Byte)
system.mem_ctrls.dram.bytesPerActivate::640-767          560      4.17%     26.07% # Bytes accessed per row activation (Byte)
system.mem_ctrls.dram.bytesPerActivate::768-895          707      5.26%     31.33% # Bytes accessed per row activation (Byte)
system.mem_ctrls.dram.bytesPerActivate::896-1023          563      4.19%     35.52% # Bytes accessed per row activation (Byte)
system.mem_ctrls.dram.bytesPerActivate::1024-1151         8666     64.48%    100.00% # Bytes accessed per row activation (Byte)
system.mem_ctrls.dram.bytesPerActivate::total        13440                       # Bytes accessed per row activation (Byte)
system.mem_ctrls.dram.bytesRead               5742720                       # Total number of bytes read from DRAM (Byte)
system.mem_ctrls.dram.bytesWritten            5450560                       # Total number of bytes written to DRAM (Byte)
system.mem_ctrls.dram.avgRdBW              630.735159                       # Average DRAM read bandwidth in MiBytes/s ((Byte/Second))
system.mem_ctrls.dram.avgWrBW              598.646605                       # Average DRAM write bandwidth in MiBytes/s ((Byte/Second))
system.mem_ctrls.dram.peakBW                 12800.00                       # Theoretical peak bandwidth in MiByte/s ((Byte/Second))
system.mem_ctrls.dram.busUtil                    9.60                       # Data bus utilization in percentage (Ratio)
system.mem_ctrls.dram.busUtilRead                4.93                       # Data bus utilization in percentage for reads (Ratio)
system.mem_ctrls.dram.busUtilWrite               4.68                       # Data bus utilization in percentage for writes (Ratio)
system.mem_ctrls.dram.pageHitRate               92.31                       # Row buffer hit rate, read and write combined (Ratio)
system.mem_ctrls.dram.power_state.pwrStateResidencyTicks::UNDEFINED   9104804000                       # Cumulative time (in ticks) in various power states (Tick)
system.mem_ctrls.dram.rank0.actEnergy        48209280                       # Energy for activate commands per rank (pJ) (Joule)
system.mem_ctrls.dram.rank0.preEnergy        25623840                       # Energy for precharge commands per rank (pJ) (Joule)
system.mem_ctrls.dram.rank0.readEnergy      322135380                       # Energy for read commands per rank (pJ) (Joule)
system.mem_ctrls.dram.rank0.writeEnergy     223546500                       # Energy for write commands per rank (pJ) (Joule)
system.mem_ctrls.dram.rank0.refreshEnergy 718514160.000000                       # Energy for refresh commands per rank (pJ) (Joule)
system.mem_ctrls.dram.rank0.actBackEnergy   2189226930                       # Energy for active background per rank (pJ) (Joule)
system.mem_ctrls.dram.rank0.preBackEnergy   1652685600                       # Energy for precharge background per rank (pJ) (Joule)
system.mem_ctrls.dram.rank0.actPowerDownEnergy            0                       # Energy for active power-down per rank (pJ) (Joule)
system.mem_ctrls.dram.rank0.prePowerDownEnergy            0                       # Energy for precharge power-down per rank (pJ) (Joule)
system.mem_ctrls.dram.rank0.selfRefreshEnergy            0                       # Energy for self refresh per rank (pJ) (Joule)
system.mem_ctrls.dram.rank0.totalEnergy    5179941690                       # Total energy per rank (pJ) (Joule)
system.mem_ctrls.dram.rank0.averagePower   568.924020                       # Core power per rank (mW) (Watt)
system.mem_ctrls.dram.rank0.totalIdleTime            0                       # Total Idle time Per DRAM Rank (Tick)
system.mem_ctrls.dram.rank0.pwrStateTime::IDLE   4230972500                       # Time in different power states (Tick)
system.mem_ctrls.dram.rank0.pwrStateTime::REF    303940000                       # Time in different power states (Tick)
system.mem_ctrls.dram.rank0.pwrStateTime::SREF            0                       # Time in different power states (Tick)
system.mem_ctrls.dram.rank0.pwrStateTime::PRE_PDN            0                       # Time in different power states (Tick)
system.mem_ctrls.dram.rank0.pwrStateTime::ACT   4569891500                       # Time in different power states (Tick)
system.mem_ctrls.dram.rank0.pwrStateTime::ACT_PDN            0                       # Time in different power states (Tick)
system.mem_ctrls.dram.rank1.actEnergy        47759460                       # Energy for activate commands per rank (pJ) (Joule)
system.mem_ctrls.dram.rank1.preEnergy        25380960                       # Energy for precharge commands per rank (pJ) (Joule)
system.mem_ctrls.dram.rank1.readEnergy      318536820                       # Energy for read commands per rank (pJ) (Joule)
system.mem_ctrls.dram.rank1.writeEnergy     221014800                       # Energy for write commands per rank (pJ) (Joule)
system.mem_ctrls.dram.rank1.refreshEnergy 718514160.000000                       # Energy for refresh commands per rank (pJ) (Joule)
system.mem_ctrls.dram.rank1.actBackEnergy   2172172530                       # Energy for active background per rank (pJ) (Joule)
system.mem_ctrls.dram.rank1.preBackEnergy   1667047200                       # Energy for precharge background per rank (pJ) (Joule)
system.mem_ctrls.dram.rank1.actPowerDownEnergy            0                       # Energy for active power-down per rank (pJ) (Joule)
system.mem_ctrls.dram.rank1.prePowerDownEnergy            0                       # Energy for precharge power-down per rank (pJ) (Joule)
system.mem_ctrls.dram.rank1.selfRefreshEnergy            0                       # Energy for self refresh per rank (pJ) (Joule)
system.mem_ctrls.dram.rank1.totalEnergy    5170425930                       # Total energy per rank (pJ) (Joule)
system.mem_ctrls.dram.rank1.averagePower   567.878883                       # Core power per rank (mW) (Watt)
system.mem_ctrls.dram.rank1.totalIdleTime            0                       # Total Idle time Per DRAM Rank (Tick)
system.mem_ctrls.dram.rank1.pwrStateTime::IDLE   4269118750                       # Time in different power states (Tick)
system.mem_ctrls.dram.rank1.pwrStateTime::REF    303940000                       # Time in different power states (Tick)
system.mem_ctrls.dram.rank1.pwrStateTime::SREF            0                       # Time in different power states (Tick)
system.mem_ctrls.dram.rank1.pwrStateTime::PRE_PDN            0                       # Time in different power states (Tick)
system.mem_ctrls.dram.rank1.pwrStateTime::ACT   4531745250                       # Time in different power states (Tick)
system.mem_ctrls.dram.rank1.pwrStateTime::ACT_PDN            0                       # Time in different power states (Tick)
system.mem_ctrls.power_state.pwrStateResidencyTicks::UNDEFINED   9104804000                       # Cumulative time (in ticks) in various power states (Tick)
system.membus.transDist::ReadResp                 468                       # Transaction distribution (Count)
system.membus.transDist::WritebackDirty         85191                       # Transaction distribution (Count)
system.membus.transDist::CleanEvict                73                       # Transaction distribution (Count)
system.membus.transDist::ReadExReq              89262                       # Transaction distribution (Count)
system.membus.transDist::ReadExResp             89261                       # Transaction distribution (Count)
system.membus.transDist::ReadSharedReq            468                       # Transaction distribution (Count)
system.membus.pktCount_system.l2.mem_side_port::system.mem_ctrls.port       264723                       # Packet count per connected requestor and responder (Count)
system.membus.pktCount_system.l2.mem_side_port::total       264723                       # Packet count per connected requestor and responder (Count)
system.membus.pktCount::total                  264723                       # Packet count per connected requestor and responder (Count)
system.membus.pktSize_system.l2.mem_side_port::system.mem_ctrls.port     11194880                       # Cumulative packet size per connected requestor and responder (Byte)
system.membus.pktSize_system.l2.mem_side_port::total     11194880                       # Cumulative packet size per connected requestor and responder (Byte)
system.membus.pktSize::total                 11194880                       # Cumulative packet size per connected requestor and responder (Byte)
system.membus.snoops                                0                       # Total snoops (Count)
system.membus.snoopTraffic                          0                       # Total snoop traffic (Byte)
system.membus.snoopFanout::samples              89730                       # Request fanout histogram (Count)
system.membus.snoopFanout::mean                     0                       # Request fanout histogram (Count)
system.membus.snoopFanout::stdev                    0                       # Request fanout histogram (Count)
system.membus.snoopFanout::underflows               0      0.00%      0.00% # Request fanout histogram (Count)
system.membus.snoopFanout::0                    89730    100.00%    100.00% # Request fanout histogram (Count)
system.membus.snoopFanout::1                        0      0.00%    100.00% # Request fanout histogram (Count)
system.membus.snoopFanout::overflows                0      0.00%    100.00% # Request fanout histogram (Count)
system.membus.snoopFanout::min_value                0                       # Request fanout histogram (Count)
system.membus.snoopFanout::max_value                0                       # Request fanout histogram (Count)
system.membus.snoopFanout::total                89730                       # Request fanout histogram (Count)
system.membus.power_state.pwrStateResidencyTicks::UNDEFINED   9104804000                       # Cumulative time (in ticks) in various power states (Tick)
system.membus.reqLayer2.occupancy           559778000                       # Layer occupancy (ticks) (Tick)
system.membus.reqLayer2.utilization               0.1                       # Layer utilization (Ratio)
system.membus.respLayer1.occupancy          473202750                       # Layer occupancy (ticks) (Tick)
system.membus.respLayer1.utilization              0.1                       # Layer utilization (Ratio)
system.membus.snoop_filter.totRequests         174994                       # Total number of requests made to the snoop filter. (Count)
system.membus.snoop_filter.hitSingleRequests        85264                       # Number of requests hitting in the snoop filter with a single holder of the requested data. (Count)
system.membus.snoop_filter.hitMultiRequests            0                       # Number of requests hitting in the snoop filter with multiple (>1) holders of the requested data. (Count)
system.membus.snoop_filter.totSnoops                0                       # Total number of snoops made to the snoop filter. (Count)
system.membus.snoop_filter.hitSingleSnoops            0                       # Number of snoops hitting in the snoop filter with a single holder of the requested data. (Count)
system.membus.snoop_filter.hitMultiSnoops            0                       # Number of snoops hitting in the snoop filter with multiple (>1) holders of the requested data. (Count)
system.tol2bus.transDist::ReadResp                477                       # Transaction distribution (Count)
system.tol2bus.transDist::WritebackDirty       173967                       # Transaction distribution (Count)
system.tol2bus.transDist::WritebackClean           35                       # Transaction distribution (Count)
system.tol2bus.transDist::CleanEvict              485                       # Transaction distribution (Count)
system.tol2bus.transDist::UpgradeReq                4                       # Transaction distribution (Count)
system.tol2bus.transDist::UpgradeResp               4                       # Transaction distribution (Count)
system.tol2bus.transDist::ReadExReq             89262                       # Transaction distribution (Count)
system.tol2bus.transDist::ReadExResp            89261                       # Transaction distribution (Count)
system.tol2bus.transDist::ReadCleanReq            407                       # Transaction distribution (Count)
system.tol2bus.transDist::ReadSharedReq            70                       # Transaction distribution (Count)
system.tol2bus.pktCount_system.cpu.icache.mem_side_port::system.l2.cpu_side_port          846                       # Packet count per connected requestor and responder (Count)
system.tol2bus.pktCount_system.cpu.dcache.mem_side_port::system.l2.cpu_side_port       267490                       # Packet count per connected requestor and responder (Count)
system.tol2bus.pktCount::total                 268336                       # Packet count per connected requestor and responder (Count)
system.tol2bus.pktSize_system.cpu.icache.mem_side_port::system.l2.cpu_side_port        28096                       # Cumulative packet size per connected requestor and responder (Byte)
system.tol2bus.pktSize_system.cpu.dcache.mem_side_port::system.l2.cpu_side_port     11398848                       # Cumulative packet size per connected requestor and responder (Byte)
system.tol2bus.pktSize::total                11426944                       # Cumulative packet size per connected requestor and responder (Byte)
system.tol2bus.snoops                           85636                       # Total snoops (Count)
system.tol2bus.snoopTraffic                   5452416                       # Total snoop traffic (Byte)
system.tol2bus.snoopFanout::samples            175376                       # Request fanout histogram (Count)
system.tol2bus.snoopFanout::mean             0.002178                       # Request fanout histogram (Count)
system.tol2bus.snoopFanout::stdev            0.046620                       # Request fanout histogram (Count)
system.tol2bus.snoopFanout::underflows              0      0.00%      0.00% # Request fanout histogram (Count)
system.tol2bus.snoopFanout::0                  174994     99.78%     99.78% # Request fanout histogram (Count)
system.tol2bus.snoopFanout::1                     382      0.22%    100.00% # Request fanout histogram (Count)
system.tol2bus.snoopFanout::2                       0      0.00%    100.00% # Request fanout histogram (Count)
system.tol2bus.snoopFanout::3                       0      0.00%    100.00% # Request fanout histogram (Count)
system.tol2bus.snoopFanout::4                       0      0.00%    100.00% # Request fanout histogram (Count)
system.tol2bus.snoopFanout::overflows               0      0.00%    100.00% # Request fanout histogram (Count)
system.tol2bus.snoopFanout::min_value               0                       # Request fanout histogram (Count)
system.tol2bus.snoopFanout::max_value               1                       # Request fanout histogram (Count)
system.tol2bus.snoopFanout::total              175376                       # Request fanout histogram (Count)
system.tol2bus.power_state.pwrStateResidencyTicks::UNDEFINED   9104804000                       # Cumulative time (in ticks) in various power states (Tick)
system.tol2bus.reqLayer0.occupancy          178109500                       # Layer occupancy (ticks) (Tick)
system.tol2bus.reqLayer0.utilization              0.0                       # Layer utilization (Ratio)
system.tol2bus.respLayer0.occupancy            610500                       # Layer occupancy (ticks) (Tick)
system.tol2bus.respLayer0.utilization             0.0                       # Layer utilization (Ratio)
system.tol2bus.respLayer1.occupancy         133998999                       # Layer occupancy (ticks) (Tick)
system.tol2bus.respLayer1.utilization             0.0                       # Layer utilization (Ratio)
system.tol2bus.snoop_filter.totRequests        178597                       # Total number of requests made to the snoop filter. (Count)
system.tol2bus.snoop_filter.hitSingleRequests        88854                       # Number of requests hitting in the snoop filter with a single holder of the requested data. (Count)
system.tol2bus.snoop_filter.hitMultiRequests            9                       # Number of requests hitting in the snoop filter with multiple (>1) holders of the requested data. (Count)
system.tol2bus.snoop_filter.totSnoops             373                       # Total number of snoops made to the snoop filter. (Count)
system.tol2bus.snoop_filter.hitSingleSnoops          373                       # Number of snoops hitting in the snoop filter with a single holder of the requested data. (Count)
system.tol2bus.snoop_filter.hitMultiSnoops            0                       # Number of snoops hitting in the snoop filter with multiple (>1) holders of the requested data. (Count)
system.voltage_domain.voltage                       1                       # Voltage in Volts (Volt)
system.workload.inst.arm                            0                       # number of arm instructions executed (Count)
system.workload.inst.quiesce                        0                       # number of quiesce instructions executed (Count)

---------- End Simulation Statistics   ----------
