
---------- Begin Simulation Statistics ----------
simSeconds                                   0.003778                       # Number of seconds simulated (Second)
simTicks                                   3778083000                       # Number of ticks simulated (Tick)
finalTick                                  3778083000                       # Number of ticks from beginning of simulation (restored from checkpoints and never reset) (Tick)
simFreq                                  1000000000000                       # The number of ticks per simulated second ((Tick/Second))
hostSeconds                                    113.15                       # Real time elapsed on the host (Second)
hostTickRate                                 33390175                       # The number of ticks simulated per host second (ticks/s) ((Tick/Second))
hostMemory                                     646472                       # Number of bytes of host memory used (Byte)
simInsts                                     10000002                       # Number of instructions simulated (Count)
simOps                                       18039886                       # Number of ops (including micro ops) simulated (Count)
hostInstRate                                    88378                       # Simulator instruction rate (inst/s) ((Count/Second))
hostOpRate                                     159434                       # Simulator op (including micro ops) rate (op/s) ((Count/Second))
system.clk_domain.clock                          1000                       # Clock period in ticks (Tick)
system.cpu.numCycles                          7556167                       # Number of cpu cycles simulated (Cycle)
system.cpu.numWorkItemsStarted                      0                       # Number of work items this cpu started (Count)
system.cpu.numWorkItemsCompleted                    0                       # Number of work items this cpu completed (Count)
system.cpu.instsAdded                        20801675                       # Number of instructions added to the IQ (excludes non-spec) (Count)
system.cpu.nonSpecInstsAdded                      198                       # Number of non-speculative instructions added to the IQ (Count)
system.cpu.instsIssued                       19984243                       # Number of instructions issued (Count)
system.cpu.squashedInstsIssued                    300                       # Number of squashed instructions issued (Count)
system.cpu.squashedInstsExamined              2761965                       # Number of squashed instructions iterated over during squash; mainly for profiling (Count)
system.cpu.squashedOperandsExamined           2956416                       # Number of squashed operands that are examined and possibly removed from graph (Count)
system.cpu.squashedNonSpecRemoved                 191                       # Number of squashed non-spec instructions that were removed (Count)
system.cpu.numIssuedDist::samples             7522076                       # Number of insts issued each cycle (Count)
system.cpu.numIssuedDist::mean               2.656746                       # Number of insts issued each cycle (Count)
system.cpu.numIssuedDist::stdev              2.426092                       # Number of insts issued each cycle (Count)
system.cpu.numIssuedDist::underflows                0      0.00%      0.00% # Number of insts issued each cycle (Count)
system.cpu.numIssuedDist::0                   2351292     31.26%     31.26% # Number of insts issued each cycle (Count)
system.cpu.numIssuedDist::1                    794752     10.57%     41.82% # Number of insts issued each cycle (Count)
system.cpu.numIssuedDist::2                    638673      8.49%     50.31% # Number of insts issued each cycle (Count)
system.cpu.numIssuedDist::3                    901392     11.98%     62.30% # Number of insts issued each cycle (Count)
system.cpu.numIssuedDist::4                    933125     12.41%     74.70% # Number of insts issued each cycle (Count)
system.cpu.numIssuedDist::5                    694003      9.23%     83.93% # Number of insts issued each cycle (Count)
system.cpu.numIssuedDist::6                    619264      8.23%     92.16% # Number of insts issued each cycle (Count)
system.cpu.numIssuedDist::7                    426730      5.67%     97.84% # Number of insts issued each cycle (Count)
system.cpu.numIssuedDist::8                    162845      2.16%    100.00% # Number of insts issued each cycle (Count)
system.cpu.numIssuedDist::overflows                 0      0.00%    100.00% # Number of insts issued each cycle (Count)
system.cpu.numIssuedDist::min_value                 0                       # Number of insts issued each cycle (Count)
system.cpu.numIssuedDist::max_value                 8                       # Number of insts issued each cycle (Count)
system.cpu.numIssuedDist::total               7522076                       # Number of insts issued each cycle (Count)
system.cpu.statFuBusy::No_OpClass                   0      0.00%      0.00% # attempts to use FU when none available (Count)
system.cpu.statFuBusy::IntAlu                  240548     71.98%     71.98% # attempts to use FU when none available (Count)
system.cpu.statFuBusy::IntMult                      0      0.00%     71.98% # attempts to use FU when none available (Count)
system.cpu.statFuBusy::IntDiv                       0      0.00%     71.98% # attempts to use FU when none available (Count)
system.cpu.statFuBusy::FloatAdd                     0      0.00%     71.98% # attempts to use FU when none available (Count)
system.cpu.statFuBusy::FloatCmp                     0      0.00%     71.98% # attempts to use FU when none available (Count)
system.cpu.statFuBusy::FloatCvt                     0      0.00%     71.98% # attempts to use FU when none available (Count)
system.cpu.statFuBusy::FloatMult                    0      0.00%     71.98% # attempts to use FU when none available (Count)
system.cpu.statFuBusy::FloatMultAcc                 0      0.00%     71.98% # attempts to use FU when none available (Count)
system.cpu.statFuBusy::FloatDiv                     0      0.00%     71.98% # attempts to use FU when none available (Count)
system.cpu.statFuBusy::FloatMisc                    0      0.00%     71.98% # attempts to use FU when none available (Count)
system.cpu.statFuBusy::FloatSqrt                    0      0.00%     71.98% # attempts to use FU when none available (Count)
system.cpu.statFuBusy::SimdAdd                      0      0.00%     71.98% # attempts to use FU when none available (Count)
system.cpu.statFuBusy::SimdAddAcc                   0      0.00%     71.98% # attempts to use FU when none available (Count)
system.cpu.statFuBusy::SimdAlu                      0      0.00%     71.98% # attempts to use FU when none available (Count)
system.cpu.statFuBusy::SimdCmp                      0      0.00%     71.98% # attempts to use FU when none available (Count)
system.cpu.statFuBusy::SimdCvt                      0      0.00%     71.98% # attempts to use FU when none available (Count)
system.cpu.statFuBusy::SimdMisc                     0      0.00%     71.98% # attempts to use FU when none available (Count)
system.cpu.statFuBusy::SimdMult                     0      0.00%     71.98% # attempts to use FU when none available (Count)
system.cpu.statFuBusy::SimdMultAcc                  0      0.00%     71.98% # attempts to use FU when none available (Count)
system.cpu.statFuBusy::SimdShift                    0      0.00%     71.98% # attempts to use FU when none available (Count)
system.cpu.statFuBusy::SimdShiftAcc                 0      0.00%     71.98% # attempts to use FU when none available (Count)
system.cpu.statFuBusy::SimdDiv                      0      0.00%     71.98% # attempts to use FU when none available (Count)
system.cpu.statFuBusy::SimdSqrt                     0      0.00%     71.98% # attempts to use FU when none available (Count)
system.cpu.statFuBusy::SimdFloatAdd                 0      0.00%     71.98% # attempts to use FU when none available (Count)
system.cpu.statFuBusy::SimdFloatAlu                 0      0.00%     71.98% # attempts to use FU when none available (Count)
system.cpu.statFuBusy::SimdFloatCmp                 0      0.00%     71.98% # attempts to use FU when none available (Count)
system.cpu.statFuBusy::SimdFloatCvt                 0      0.00%     71.98% # attempts to use FU when none available (Count)
system.cpu.statFuBusy::SimdFloatDiv                 0      0.00%     71.98% # attempts to use FU when none available (Count)
system.cpu.statFuBusy::SimdFloatMisc                0      0.00%     71.98% # attempts to use FU when none available (Count)
system.cpu.statFuBusy::SimdFloatMult                0      0.00%     71.98% # attempts to use FU when none available (Count)
system.cpu.statFuBusy::SimdFloatMultAcc             0      0.00%     71.98% # attempts to use FU when none available (Count)
system.cpu.statFuBusy::SimdFloatSqrt                0      0.00%     71.98% # attempts to use FU when none available (Count)
system.cpu.statFuBusy::SimdReduceAdd                0      0.00%     71.98% # attempts to use FU when none available (Count)
system.cpu.statFuBusy::SimdReduceAlu                0      0.00%     71.98% # attempts to use FU when none available (Count)
system.cpu.statFuBusy::SimdReduceCmp                0      0.00%     71.98% # attempts to use FU when none available (Count)
system.cpu.statFuBusy::SimdFloatReduceAdd            0      0.00%     71.98% # attempts to use FU when none available (Count)
system.cpu.statFuBusy::SimdFloatReduceCmp            0      0.00%     71.98% # attempts to use FU when none available (Count)
system.cpu.statFuBusy::SimdAes                      0      0.00%     71.98% # attempts to use FU when none available (Count)
system.cpu.statFuBusy::SimdAesMix                   0      0.00%     71.98% # attempts to use FU when none available (Count)
system.cpu.statFuBusy::SimdSha1Hash                 0      0.00%     71.98% # attempts to use FU when none available (Count)
system.cpu.statFuBusy::SimdSha1Hash2                0      0.00%     71.98% # attempts to use FU when none available (Count)
system.cpu.statFuBusy::SimdSha256Hash               0      0.00%     71.98% # attempts to use FU when none available (Count)
system.cpu.statFuBusy::SimdSha256Hash2              0      0.00%     71.98% # attempts to use FU when none available (Count)
system.cpu.statFuBusy::SimdShaSigma2                0      0.00%     71.98% # attempts to use FU when none available (Count)
system.cpu.statFuBusy::SimdShaSigma3                0      0.00%     71.98% # attempts to use FU when none available (Count)
system.cpu.statFuBusy::SimdPredAlu                  0      0.00%     71.98% # attempts to use FU when none available (Count)
system.cpu.statFuBusy::MemRead                  49295     14.75%     86.73% # attempts to use FU when none available (Count)
system.cpu.statFuBusy::MemWrite                 44359     13.27%    100.00% # attempts to use FU when none available (Count)
system.cpu.statFuBusy::FloatMemRead                 0      0.00%    100.00% # attempts to use FU when none available (Count)
system.cpu.statFuBusy::FloatMemWrite                0      0.00%    100.00% # attempts to use FU when none available (Count)
system.cpu.statFuBusy::IprAccess                    0      0.00%    100.00% # attempts to use FU when none available (Count)
system.cpu.statFuBusy::InstPrefetch                 0      0.00%    100.00% # attempts to use FU when none available (Count)
system.cpu.statIssuedInstType_0::No_OpClass       142721      0.71%      0.71% # Number of instructions issued per FU type, per thread (Count)
system.cpu.statIssuedInstType_0::IntAlu      14014301     70.13%     70.84% # Number of instructions issued per FU type, per thread (Count)
system.cpu.statIssuedInstType_0::IntMult           24      0.00%     70.84% # Number of instructions issued per FU type, per thread (Count)
system.cpu.statIssuedInstType_0::IntDiv            84      0.00%     70.84% # Number of instructions issued per FU type, per thread (Count)
system.cpu.statIssuedInstType_0::FloatAdd            0      0.00%     70.84% # Number of instructions issued per FU type, per thread (Count)
system.cpu.statIssuedInstType_0::FloatCmp            0      0.00%     70.84% # Number of instructions issued per FU type, per thread (Count)
system.cpu.statIssuedInstType_0::FloatCvt            0      0.00%     70.84% # Number of instructions issued per FU type, per thread (Count)
system.cpu.statIssuedInstType_0::FloatMult            0      0.00%     70.84% # Number of instructions issued per FU type, per thread (Count)
system.cpu.statIssuedInstType_0::FloatMultAcc            0      0.00%     70.84% # Number of instructions issued per FU type, per thread (Count)
system.cpu.statIssuedInstType_0::FloatDiv            0      0.00%     70.84% # Number of instructions issued per FU type, per thread (Count)
system.cpu.statIssuedInstType_0::FloatMisc            0      0.00%     70.84% # Number of instructions issued per FU type, per thread (Count)
system.cpu.statIssuedInstType_0::FloatSqrt            0      0.00%     70.84% # Number of instructions issued per FU type, per thread (Count)
system.cpu.statIssuedInstType_0::SimdAdd            0      0.00%     70.84% # Number of instructions issued per FU type, per thread (Count)
system.cpu.statIssuedInstType_0::SimdAddAcc            0      0.00%     70.84% # Number of instructions issued per FU type, per thread (Count)
system.cpu.statIssuedInstType_0::SimdAlu            0      0.00%     70.84% # Number of instructions issued per FU type, per thread (Count)
system.cpu.statIssuedInstType_0::SimdCmp            0      0.00%     70.84% # Number of instructions issued per FU type, per thread (Count)
system.cpu.statIssuedInstType_0::SimdCvt            0      0.00%     70.84% # Number of instructions issued per FU type, per thread (Count)
system.cpu.statIssuedInstType_0::SimdMisc            0      0.00%     70.84% # Number of instructions issued per FU type, per thread (Count)
system.cpu.statIssuedInstType_0::SimdMult            0      0.00%     70.84% # Number of instructions issued per FU type, per thread (Count)
system.cpu.statIssuedInstType_0::SimdMultAcc            0      0.00%     70.84% # Number of instructions issued per FU type, per thread (Count)
system.cpu.statIssuedInstType_0::SimdShift            0      0.00%     70.84% # Number of instructions issued per FU type, per thread (Count)
system.cpu.statIssuedInstType_0::SimdShiftAcc            0      0.00%     70.84% # Number of instructions issued per FU type, per thread (Count)
system.cpu.statIssuedInstType_0::SimdDiv            0      0.00%     70.84% # Number of instructions issued per FU type, per thread (Count)
system.cpu.statIssuedInstType_0::SimdSqrt            0      0.00%     70.84% # Number of instructions issued per FU type, per thread (Count)
system.cpu.statIssuedInstType_0::SimdFloatAdd            0      0.00%     70.84% # Number of instructions issued per FU type, per thread (Count)
system.cpu.statIssuedInstType_0::SimdFloatAlu            0      0.00%     70.84% # Number of instructions issued per FU type, per thread (Count)
system.cpu.statIssuedInstType_0::SimdFloatCmp            0      0.00%     70.84% # Number of instructions issued per FU type, per thread (Count)
system.cpu.statIssuedInstType_0::SimdFloatCvt            0      0.00%     70.84% # Number of instructions issued per FU type, per thread (Count)
system.cpu.statIssuedInstType_0::SimdFloatDiv            0      0.00%     70.84% # Number of instructions issued per FU type, per thread (Count)
system.cpu.statIssuedInstType_0::SimdFloatMisc            0      0.00%     70.84% # Number of instructions issued per FU type, per thread (Count)
system.cpu.statIssuedInstType_0::SimdFloatMult            0      0.00%     70.84% # Number of instructions issued per FU type, per thread (Count)
system.cpu.statIssuedInstType_0::SimdFloatMultAcc            0      0.00%     70.84% # Number of instructions issued per FU type, per thread (Count)
system.cpu.statIssuedInstType_0::SimdFloatSqrt            0      0.00%     70.84% # Number of instructions issued per FU type, per thread (Count)
system.cpu.statIssuedInstType_0::SimdReduceAdd            0      0.00%     70.84% # Number of instructions issued per FU type, per thread (Count)
system.cpu.statIssuedInstType_0::SimdReduceAlu            0      0.00%     70.84% # Number of instructions issued per FU type, per thread (Count)
system.cpu.statIssuedInstType_0::SimdReduceCmp            0      0.00%     70.84% # Number of instructions issued per FU type, per thread (Count)
system.cpu.statIssuedInstType_0::SimdFloatReduceAdd            0      0.00%     70.84% # Number of instructions issued per FU type, per thread (Count)
system.cpu.statIssuedInstType_0::SimdFloatReduceCmp            0      0.00%     70.84% # Number of instructions issued per FU type, per thread (Count)
system.cpu.statIssuedInstType_0::SimdAes            0      0.00%     70.84% # Number of instructions issued per FU type, per thread (Count)
system.cpu.statIssuedInstType_0::SimdAesMix            0      0.00%     70.84% # Number of instructions issued per FU type, per thread (Count)
system.cpu.statIssuedInstType_0::SimdSha1Hash            0      0.00%     70.84% # Number of instructions issued per FU type, per thread (Count)
system.cpu.statIssuedInstType_0::SimdSha1Hash2            0      0.00%     70.84% # Number of instructions issued per FU type, per thread (Count)
system.cpu.statIssuedInstType_0::SimdSha256Hash            0      0.00%     70.84% # Number of instructions issued per FU type, per thread (Count)
system.cpu.statIssuedInstType_0::SimdSha256Hash2            0      0.00%     70.84% # Number of instructions issued per FU type, per thread (Count)
system.cpu.statIssuedInstType_0::SimdShaSigma2            0      0.00%     70.84% # Number of instructions issued per FU type, per thread (Count)
system.cpu.statIssuedInstType_0::SimdShaSigma3            0      0.00%     70.84% # Number of instructions issued per FU type, per thread (Count)
system.cpu.statIssuedInstType_0::SimdPredAlu            0      0.00%     70.84% # Number of instructions issued per FU type, per thread (Count)
system.cpu.statIssuedInstType_0::MemRead      3917530     19.60%     90.44% # Number of instructions issued per FU type, per thread (Count)
system.cpu.statIssuedInstType_0::MemWrite      1909583      9.56%    100.00% # Number of instructions issued per FU type, per thread (Count)
system.cpu.statIssuedInstType_0::FloatMemRead            0      0.00%    100.00% # Number of instructions issued per FU type, per thread (Count)
system.cpu.statIssuedInstType_0::FloatMemWrite            0      0.00%    100.00% # Number of instructions issued per FU type, per thread (Count)
system.cpu.statIssuedInstType_0::IprAccess            0      0.00%    100.00% # Number of instructions issued per FU type, per thread (Count)
system.cpu.statIssuedInstType_0::InstPrefetch            0      0.00%    100.00% # Number of instructions issued per FU type, per thread (Count)
system.cpu.statIssuedInstType_0::total       19984243                       # Number of instructions issued per FU type, per thread (Count)
system.cpu.issueRate                         2.644759                       # Inst issue rate ((Count/Cycle))
system.cpu.fuBusy                              334202                       # FU busy when requested (Count)
system.cpu.fuBusyRate                        0.016723                       # FU busy rate (busy events/executed inst) ((Count/Count))
system.cpu.intInstQueueReads                 47825060                       # Number of integer instruction queue reads (Count)
system.cpu.intInstQueueWrites                23564139                       # Number of integer instruction queue writes (Count)
system.cpu.intInstQueueWakeupAccesses        19685016                       # Number of integer instruction queue wakeup accesses (Count)
system.cpu.fpInstQueueReads                         0                       # Number of floating instruction queue reads (Count)
system.cpu.fpInstQueueWrites                        0                       # Number of floating instruction queue writes (Count)
system.cpu.fpInstQueueWakeupAccesses                0                       # Number of floating instruction queue wakeup accesses (Count)
system.cpu.vecInstQueueReads                        0                       # Number of vector instruction queue reads (Count)
system.cpu.vecInstQueueWrites                       0                       # Number of vector instruction queue writes (Count)
system.cpu.vecInstQueueWakeupAccesses               0                       # Number of vector instruction queue wakeup accesses (Count)
system.cpu.intAluAccesses                    20175724                       # Number of integer alu accesses (Count)
system.cpu.fpAluAccesses                            0                       # Number of floating point alu accesses (Count)
system.cpu.vecAluAccesses                           0                       # Number of vector alu accesses (Count)
system.cpu.idleCycles                               0                       # Number of cycles IEW is idle (Cycle)
system.cpu.squashCycles                        213014                       # Number of cycles IEW is squashing (Cycle)
system.cpu.blockCycles                         583305                       # Number of cycles IEW is blocking (Cycle)
system.cpu.unblockCycles                        71006                       # Number of cycles IEW is unblocking (Cycle)
system.cpu.dispatchedInsts                   20801873                       # Number of instructions dispatched to IQ (Count)
system.cpu.dispSquashedInsts                       68                       # Number of squashed instructions skipped by dispatch (Count)
system.cpu.dispLoadInsts                      4133450                       # Number of dispatched load instructions (Count)
system.cpu.dispStoreInsts                     2154336                       # Number of dispatched store instructions (Count)
system.cpu.dispNonSpecInsts                        76                       # Number of dispatched non-speculative instructions (Count)
system.cpu.iqFullEvents                           224                       # Number of times the IQ has become full, causing a stall (Count)
system.cpu.lsqFullEvents                        70744                       # Number of times the LSQ has become full, causing a stall (Count)
system.cpu.memOrderViolationEvents                301                       # Number of memory order violations (Count)
system.cpu.predictedTakenIncorrect              68792                       # Number of branches that were predicted taken incorrectly (Count)
system.cpu.predictedNotTakenIncorrect          146635                       # Number of branches that were predicted not taken incorrectly (Count)
system.cpu.branchMispredicts                   215427                       # Number of branch mispredicts detected at execute (Count)
system.cpu.numInsts                          19933059                       # Number of executed instructions (Count)
system.cpu.numLoadInsts                       3913615                       # Number of load instructions executed (Count)
system.cpu.numSquashedInsts                     51180                       # Number of squashed instructions skipped in execute (Count)
system.cpu.numSwp                                   0                       # Number of swp insts executed (Count)
system.cpu.numNop                                   0                       # Number of nop insts executed (Count)
system.cpu.numRefs                            5822954                       # Number of memory reference insts executed (Count)
system.cpu.numBranches                        2557681                       # Number of branches executed (Count)
system.cpu.numStoreInsts                      1909339                       # Number of stores executed (Count)
system.cpu.numRate                           2.637986                       # Inst execution rate ((Count/Cycle))
system.cpu.instsToCommit                     19900862                       # Cumulative count of insts sent to commit (Count)
system.cpu.writebackCount                    19685016                       # Cumulative count of insts written-back (Count)
system.cpu.producerInst                      13587567                       # Number of instructions producing a value (Count)
system.cpu.consumerInst                      21493774                       # Number of instructions consuming a value (Count)
system.cpu.wbRate                            2.605159                       # Insts written-back per cycle ((Count/Cycle))
system.cpu.wbFanout                          0.632163                       # Average fanout of values written-back ((Count/Count))
system.cpu.timesIdled                             281                       # Number of times that the entire CPU went into an idle state and unscheduled itself (Count)
system.cpu.idleCycles                           34091                       # Total number of cycles that the CPU has spent unscheduled due to idling (Cycle)
system.cpu.committedInsts                    10000002                       # Number of Instructions Simulated (Count)
system.cpu.committedOps                      18039886                       # Number of Ops (including micro ops) Simulated (Count)
system.cpu.cpi                               0.755617                       # CPI: Cycles Per Instruction ((Cycle/Count))
system.cpu.totalCpi                          0.755617                       # CPI: Total CPI of All Threads ((Cycle/Count))
system.cpu.ipc                               1.323423                       # IPC: Instructions Per Cycle ((Count/Cycle))
system.cpu.totalIpc                          1.323423                       # IPC: Total IPC of All Threads ((Count/Cycle))
system.cpu.intRegfileReads                   29031620                       # Number of integer regfile reads (Count)
system.cpu.intRegfileWrites                  15218777                       # Number of integer regfile writes (Count)
system.cpu.ccRegfileReads                     8774120                       # number of cc regfile reads (Count)
system.cpu.ccRegfileWrites                    5747587                       # number of cc regfile writes (Count)
system.cpu.miscRegfileReads                  10531113                       # number of misc regfile reads (Count)
system.cpu.miscRegfileWrites                        8                       # number of misc regfile writes (Count)
system.cpu.MemDepUnit__0.insertedLoads        4133450                       # Number of loads inserted to the mem dependence unit. (Count)
system.cpu.MemDepUnit__0.insertedStores       2154336                       # Number of stores inserted to the mem dependence unit. (Count)
system.cpu.MemDepUnit__0.conflictingLoads       599305                       # Number of conflicting loads. (Count)
system.cpu.MemDepUnit__0.conflictingStores       304418                       # Number of conflicting stores. (Count)
system.cpu.MemDepUnit__1.insertedLoads              0                       # Number of loads inserted to the mem dependence unit. (Count)
system.cpu.MemDepUnit__1.insertedStores             0                       # Number of stores inserted to the mem dependence unit. (Count)
system.cpu.MemDepUnit__1.conflictingLoads            0                       # Number of conflicting loads. (Count)
system.cpu.MemDepUnit__1.conflictingStores            0                       # Number of conflicting stores. (Count)
system.cpu.MemDepUnit__2.insertedLoads              0                       # Number of loads inserted to the mem dependence unit. (Count)
system.cpu.MemDepUnit__2.insertedStores             0                       # Number of stores inserted to the mem dependence unit. (Count)
system.cpu.MemDepUnit__2.conflictingLoads            0                       # Number of conflicting loads. (Count)
system.cpu.MemDepUnit__2.conflictingStores            0                       # Number of conflicting stores. (Count)
system.cpu.MemDepUnit__3.insertedLoads              0                       # Number of loads inserted to the mem dependence unit. (Count)
system.cpu.MemDepUnit__3.insertedStores             0                       # Number of stores inserted to the mem dependence unit. (Count)
system.cpu.MemDepUnit__3.conflictingLoads            0                       # Number of conflicting loads. (Count)
system.cpu.MemDepUnit__3.conflictingStores            0                       # Number of conflicting stores. (Count)
system.cpu.branchPred.lookups                 2672784                       # Number of BP lookups (Count)
system.cpu.branchPred.condPredicted           1612180                       # Number of conditional branches predicted (Count)
system.cpu.branchPred.condIncorrect            109992                       # Number of conditional branches incorrect (Count)
system.cpu.branchPred.BTBLookups              1175596                       # Number of BTB lookups (Count)
system.cpu.branchPred.BTBHits                 1140477                       # Number of BTB hits (Count)
system.cpu.branchPred.BTBHitRatio            0.970127                       # BTB Hit Ratio (Ratio)
system.cpu.branchPred.RASUsed                  412755                       # Number of times the RAS was used to get a target. (Count)
system.cpu.branchPred.RASIncorrect              68621                       # Number of incorrect RAS predictions. (Count)
system.cpu.branchPred.indirectLookups           69103                       # Number of indirect predictor lookups. (Count)
system.cpu.branchPred.indirectHits              68821                       # Number of indirect target hits. (Count)
system.cpu.branchPred.indirectMisses              282                       # Number of indirect misses. (Count)
system.cpu.branchPred.indirectMispredicted           93                       # Number of mispredicted indirect branches. (Count)
system.cpu.commit.commitSquashedInsts         2726153                       # The number of squashed insts skipped by commit (Count)
system.cpu.commit.commitNonSpecStalls               7                       # The number of times commit has been forced to stall to communicate backwards (Count)
system.cpu.commit.branchMispredicts            178404                       # The number of times a branch was mispredicted (Count)
system.cpu.commit.numCommittedDist::samples      6737405                       # Number of insts commited each cycle (Count)
system.cpu.commit.numCommittedDist::mean     2.677572                       # Number of insts commited each cycle (Count)
system.cpu.commit.numCommittedDist::stdev     3.034872                       # Number of insts commited each cycle (Count)
system.cpu.commit.numCommittedDist::underflows            0      0.00%      0.00% # Number of insts commited each cycle (Count)
system.cpu.commit.numCommittedDist::0         2472063     36.69%     36.69% # Number of insts commited each cycle (Count)
system.cpu.commit.numCommittedDist::1         1070664     15.89%     52.58% # Number of insts commited each cycle (Count)
system.cpu.commit.numCommittedDist::2          550317      8.17%     60.75% # Number of insts commited each cycle (Count)
system.cpu.commit.numCommittedDist::3          671334      9.96%     70.72% # Number of insts commited each cycle (Count)
system.cpu.commit.numCommittedDist::4          140390      2.08%     72.80% # Number of insts commited each cycle (Count)
system.cpu.commit.numCommittedDist::5          286559      4.25%     77.05% # Number of insts commited each cycle (Count)
system.cpu.commit.numCommittedDist::6          155183      2.30%     79.36% # Number of insts commited each cycle (Count)
system.cpu.commit.numCommittedDist::7          198027      2.94%     82.29% # Number of insts commited each cycle (Count)
system.cpu.commit.numCommittedDist::8         1192868     17.71%    100.00% # Number of insts commited each cycle (Count)
system.cpu.commit.numCommittedDist::overflows            0      0.00%    100.00% # Number of insts commited each cycle (Count)
system.cpu.commit.numCommittedDist::min_value            0                       # Number of insts commited each cycle (Count)
system.cpu.commit.numCommittedDist::max_value            8                       # Number of insts commited each cycle (Count)
system.cpu.commit.numCommittedDist::total      6737405                       # Number of insts commited each cycle (Count)
system.cpu.commit.instsCommitted             10000002                       # Number of instructions committed (Count)
system.cpu.commit.opsCommitted               18039886                       # Number of ops (including micro ops) committed (Count)
system.cpu.commit.memRefs                     5392689                       # Number of memory references committed (Count)
system.cpu.commit.loads                       3485730                       # Number of loads committed (Count)
system.cpu.commit.amos                              0                       # Number of atomic instructions committed (Count)
system.cpu.commit.membars                           0                       # Number of memory barriers committed (Count)
system.cpu.commit.branches                    2284717                       # Number of branches committed (Count)
system.cpu.commit.vectorInstructions                0                       # Number of committed Vector instructions. (Count)
system.cpu.commit.floating                          0                       # Number of committed floating point instructions. (Count)
system.cpu.commit.integer                    18022879                       # Number of committed integer instructions. (Count)
system.cpu.commit.functionCalls                274815                       # Number of function calls committed. (Count)
system.cpu.commit.committedInstType_0::No_OpClass           18      0.00%      0.00% # Class of committed instruction (Count)
system.cpu.commit.committedInstType_0::IntAlu     12647080     70.11%     70.11% # Class of committed instruction (Count)
system.cpu.commit.committedInstType_0::IntMult           22      0.00%     70.11% # Class of committed instruction (Count)
system.cpu.commit.committedInstType_0::IntDiv           77      0.00%     70.11% # Class of committed instruction (Count)
system.cpu.commit.committedInstType_0::FloatAdd            0      0.00%     70.11% # Class of committed instruction (Count)
system.cpu.commit.committedInstType_0::FloatCmp            0      0.00%     70.11% # Class of committed instruction (Count)
system.cpu.commit.committedInstType_0::FloatCvt            0      0.00%     70.11% # Class of committed instruction (Count)
system.cpu.commit.committedInstType_0::FloatMult            0      0.00%     70.11% # Class of committed instruction (Count)
system.cpu.commit.committedInstType_0::FloatMultAcc            0      0.00%     70.11% # Class of committed instruction (Count)
system.cpu.commit.committedInstType_0::FloatDiv            0      0.00%     70.11% # Class of committed instruction (Count)
system.cpu.commit.committedInstType_0::FloatMisc            0      0.00%     70.11% # Class of committed instruction (Count)
system.cpu.commit.committedInstType_0::FloatSqrt            0      0.00%     70.11% # Class of committed instruction (Count)
system.cpu.commit.committedInstType_0::SimdAdd            0      0.00%     70.11% # Class of committed instruction (Count)
system.cpu.commit.committedInstType_0::SimdAddAcc            0      0.00%     70.11% # Class of committed instruction (Count)
system.cpu.commit.committedInstType_0::SimdAlu            0      0.00%     70.11% # Class of committed instruction (Count)
system.cpu.commit.committedInstType_0::SimdCmp            0      0.00%     70.11% # Class of committed instruction (Count)
system.cpu.commit.committedInstType_0::SimdCvt            0      0.00%     70.11% # Class of committed instruction (Count)
system.cpu.commit.committedInstType_0::SimdMisc            0      0.00%     70.11% # Class of committed instruction (Count)
system.cpu.commit.committedInstType_0::SimdMult            0      0.00%     70.11% # Class of committed instruction (Count)
system.cpu.commit.committedInstType_0::SimdMultAcc            0      0.00%     70.11% # Class of committed instruction (Count)
system.cpu.commit.committedInstType_0::SimdShift            0      0.00%     70.11% # Class of committed instruction (Count)
system.cpu.commit.committedInstType_0::SimdShiftAcc            0      0.00%     70.11% # Class of committed instruction (Count)
system.cpu.commit.committedInstType_0::SimdDiv            0      0.00%     70.11% # Class of committed instruction (Count)
system.cpu.commit.committedInstType_0::SimdSqrt            0      0.00%     70.11% # Class of committed instruction (Count)
system.cpu.commit.committedInstType_0::SimdFloatAdd            0      0.00%     70.11% # Class of committed instruction (Count)
system.cpu.commit.committedInstType_0::SimdFloatAlu            0      0.00%     70.11% # Class of committed instruction (Count)
system.cpu.commit.committedInstType_0::SimdFloatCmp            0      0.00%     70.11% # Class of committed instruction (Count)
system.cpu.commit.committedInstType_0::SimdFloatCvt            0      0.00%     70.11% # Class of committed instruction (Count)
system.cpu.commit.committedInstType_0::SimdFloatDiv            0      0.00%     70.11% # Class of committed instruction (Count)
system.cpu.commit.committedInstType_0::SimdFloatMisc            0      0.00%     70.11% # Class of committed instruction (Count)
system.cpu.commit.committedInstType_0::SimdFloatMult            0      0.00%     70.11% # Class of committed instruction (Count)
system.cpu.commit.committedInstType_0::SimdFloatMultAcc            0      0.00%     70.11% # Class of committed instruction (Count)
system.cpu.commit.committedInstType_0::SimdFloatSqrt            0      0.00%     70.11% # Class of committed instruction (Count)
system.cpu.commit.committedInstType_0::SimdReduceAdd            0      0.00%     70.11% # Class of committed instruction (Count)
system.cpu.commit.committedInstType_0::SimdReduceAlu            0      0.00%     70.11% # Class of committed instruction (Count)
system.cpu.commit.committedInstType_0::SimdReduceCmp            0      0.00%     70.11% # Class of committed instruction (Count)
system.cpu.commit.committedInstType_0::SimdFloatReduceAdd            0      0.00%     70.11% # Class of committed instruction (Count)
system.cpu.commit.committedInstType_0::SimdFloatReduceCmp            0      0.00%     70.11% # Class of committed instruction (Count)
system.cpu.commit.committedInstType_0::SimdAes            0      0.00%     70.11% # Class of committed instruction (Count)
system.cpu.commit.committedInstType_0::SimdAesMix            0      0.00%     70.11% # Class of committed instruction (Count)
system.cpu.commit.committedInstType_0::SimdSha1Hash            0      0.00%     70.11% # Class of committed instruction (Count)
system.cpu.commit.committedInstType_0::SimdSha1Hash2            0      0.00%     70.11% # Class of committed instruction (Count)
system.cpu.commit.committedInstType_0::SimdSha256Hash            0      0.00%     70.11% # Class of committed instruction (Count)
system.cpu.commit.committedInstType_0::SimdSha256Hash2            0      0.00%     70.11% # Class of committed instruction (Count)
system.cpu.commit.committedInstType_0::SimdShaSigma2            0      0.00%     70.11% # Class of committed instruction (Count)
system.cpu.commit.committedInstType_0::SimdShaSigma3            0      0.00%     70.11% # Class of committed instruction (Count)
system.cpu.commit.committedInstType_0::SimdPredAlu            0      0.00%     70.11% # Class of committed instruction (Count)
system.cpu.commit.committedInstType_0::MemRead      3485730     19.32%     89.43% # Class of committed instruction (Count)
system.cpu.commit.committedInstType_0::MemWrite      1906959     10.57%    100.00% # Class of committed instruction (Count)
system.cpu.commit.committedInstType_0::FloatMemRead            0      0.00%    100.00% # Class of committed instruction (Count)
system.cpu.commit.committedInstType_0::FloatMemWrite            0      0.00%    100.00% # Class of committed instruction (Count)
system.cpu.commit.committedInstType_0::IprAccess            0      0.00%    100.00% # Class of committed instruction (Count)
system.cpu.commit.committedInstType_0::InstPrefetch            0      0.00%    100.00% # Class of committed instruction (Count)
system.cpu.commit.committedInstType_0::total     18039886                       # Class of committed instruction (Count)
system.cpu.commit.commitEligibleSamples       1192868                       # number cycles where commit BW limit reached (Cycle)
system.cpu.dcache.demandHits::cpu.data        5040450                       # number of demand (read+write) hits (Count)
system.cpu.dcache.demandHits::total           5040450                       # number of demand (read+write) hits (Count)
system.cpu.dcache.overallHits::cpu.data       5040450                       # number of overall hits (Count)
system.cpu.dcache.overallHits::total          5040450                       # number of overall hits (Count)
system.cpu.dcache.demandMisses::cpu.data        15394                       # number of demand (read+write) misses (Count)
system.cpu.dcache.demandMisses::total           15394                       # number of demand (read+write) misses (Count)
system.cpu.dcache.overallMisses::cpu.data        15394                       # number of overall misses (Count)
system.cpu.dcache.overallMisses::total          15394                       # number of overall misses (Count)
system.cpu.dcache.demandMissLatency::cpu.data    347721000                       # number of demand (read+write) miss ticks (Tick)
system.cpu.dcache.demandMissLatency::total    347721000                       # number of demand (read+write) miss ticks (Tick)
system.cpu.dcache.overallMissLatency::cpu.data    347721000                       # number of overall miss ticks (Tick)
system.cpu.dcache.overallMissLatency::total    347721000                       # number of overall miss ticks (Tick)
system.cpu.dcache.demandAccesses::cpu.data      5055844                       # number of demand (read+write) accesses (Count)
system.cpu.dcache.demandAccesses::total       5055844                       # number of demand (read+write) accesses (Count)
system.cpu.dcache.overallAccesses::cpu.data      5055844                       # number of overall (read+write) accesses (Count)
system.cpu.dcache.overallAccesses::total      5055844                       # number of overall (read+write) accesses (Count)
system.cpu.dcache.demandMissRate::cpu.data     0.003045                       # miss rate for demand accesses (Ratio)
system.cpu.dcache.demandMissRate::total      0.003045                       # miss rate for demand accesses (Ratio)
system.cpu.dcache.overallMissRate::cpu.data     0.003045                       # miss rate for overall accesses (Ratio)
system.cpu.dcache.overallMissRate::total     0.003045                       # miss rate for overall accesses (Ratio)
system.cpu.dcache.demandAvgMissLatency::cpu.data 22588.086267                       # average overall miss latency ((Cycle/Count))
system.cpu.dcache.demandAvgMissLatency::total 22588.086267                       # average overall miss latency ((Cycle/Count))
system.cpu.dcache.overallAvgMissLatency::cpu.data 22588.086267                       # average overall miss latency ((Cycle/Count))
system.cpu.dcache.overallAvgMissLatency::total 22588.086267                       # average overall miss latency ((Cycle/Count))
system.cpu.dcache.blockedCycles::no_mshrs          373                       # number of cycles access was blocked (Cycle)
system.cpu.dcache.blockedCycles::no_targets            0                       # number of cycles access was blocked (Cycle)
system.cpu.dcache.blockedCauses::no_mshrs           14                       # number of times access was blocked (Count)
system.cpu.dcache.blockedCauses::no_targets            0                       # number of times access was blocked (Count)
system.cpu.dcache.avgBlocked::no_mshrs      26.642857                       # average number of cycles each access was blocked ((Cycle/Count))
system.cpu.dcache.avgBlocked::no_targets          nan                       # average number of cycles each access was blocked ((Cycle/Count))
system.cpu.dcache.writebacks::writebacks         1195                       # number of writebacks (Count)
system.cpu.dcache.writebacks::total              1195                       # number of writebacks (Count)
system.cpu.dcache.demandMshrHits::cpu.data        11506                       # number of demand (read+write) MSHR hits (Count)
system.cpu.dcache.demandMshrHits::total         11506                       # number of demand (read+write) MSHR hits (Count)
system.cpu.dcache.overallMshrHits::cpu.data        11506                       # number of overall MSHR hits (Count)
system.cpu.dcache.overallMshrHits::total        11506                       # number of overall MSHR hits (Count)
system.cpu.dcache.demandMshrMisses::cpu.data         3888                       # number of demand (read+write) MSHR misses (Count)
system.cpu.dcache.demandMshrMisses::total         3888                       # number of demand (read+write) MSHR misses (Count)
system.cpu.dcache.overallMshrMisses::cpu.data         3888                       # number of overall MSHR misses (Count)
system.cpu.dcache.overallMshrMisses::total         3888                       # number of overall MSHR misses (Count)
system.cpu.dcache.demandMshrMissLatency::cpu.data    234003500                       # number of demand (read+write) MSHR miss ticks (Tick)
system.cpu.dcache.demandMshrMissLatency::total    234003500                       # number of demand (read+write) MSHR miss ticks (Tick)
system.cpu.dcache.overallMshrMissLatency::cpu.data    234003500                       # number of overall MSHR miss ticks (Tick)
system.cpu.dcache.overallMshrMissLatency::total    234003500                       # number of overall MSHR miss ticks (Tick)
system.cpu.dcache.demandMshrMissRate::cpu.data     0.000769                       # mshr miss ratio for demand accesses (Ratio)
system.cpu.dcache.demandMshrMissRate::total     0.000769                       # mshr miss ratio for demand accesses (Ratio)
system.cpu.dcache.overallMshrMissRate::cpu.data     0.000769                       # mshr miss ratio for overall accesses (Ratio)
system.cpu.dcache.overallMshrMissRate::total     0.000769                       # mshr miss ratio for overall accesses (Ratio)
system.cpu.dcache.demandAvgMshrMissLatency::cpu.data 60186.085391                       # average overall mshr miss latency ((Cycle/Count))
system.cpu.dcache.demandAvgMshrMissLatency::total 60186.085391                       # average overall mshr miss latency ((Cycle/Count))
system.cpu.dcache.overallAvgMshrMissLatency::cpu.data 60186.085391                       # average overall mshr miss latency ((Cycle/Count))
system.cpu.dcache.overallAvgMshrMissLatency::total 60186.085391                       # average overall mshr miss latency ((Cycle/Count))
system.cpu.dcache.replacements                   3374                       # number of replacements (Count)
system.cpu.dcache.ReadReq.hits::cpu.data      3134627                       # number of ReadReq hits (Count)
system.cpu.dcache.ReadReq.hits::total         3134627                       # number of ReadReq hits (Count)
system.cpu.dcache.ReadReq.misses::cpu.data        14258                       # number of ReadReq misses (Count)
system.cpu.dcache.ReadReq.misses::total         14258                       # number of ReadReq misses (Count)
system.cpu.dcache.ReadReq.missLatency::cpu.data    261095000                       # number of ReadReq miss ticks (Tick)
system.cpu.dcache.ReadReq.missLatency::total    261095000                       # number of ReadReq miss ticks (Tick)
system.cpu.dcache.ReadReq.accesses::cpu.data      3148885                       # number of ReadReq accesses(hits+misses) (Count)
system.cpu.dcache.ReadReq.accesses::total      3148885                       # number of ReadReq accesses(hits+misses) (Count)
system.cpu.dcache.ReadReq.missRate::cpu.data     0.004528                       # miss rate for ReadReq accesses (Ratio)
system.cpu.dcache.ReadReq.missRate::total     0.004528                       # miss rate for ReadReq accesses (Ratio)
system.cpu.dcache.ReadReq.avgMissLatency::cpu.data 18312.175621                       # average ReadReq miss latency ((Tick/Count))
system.cpu.dcache.ReadReq.avgMissLatency::total 18312.175621                       # average ReadReq miss latency ((Tick/Count))
system.cpu.dcache.ReadReq.mshrHits::cpu.data        11503                       # number of ReadReq MSHR hits (Count)
system.cpu.dcache.ReadReq.mshrHits::total        11503                       # number of ReadReq MSHR hits (Count)
system.cpu.dcache.ReadReq.mshrMisses::cpu.data         2755                       # number of ReadReq MSHR misses (Count)
system.cpu.dcache.ReadReq.mshrMisses::total         2755                       # number of ReadReq MSHR misses (Count)
system.cpu.dcache.ReadReq.mshrMissLatency::cpu.data    148616500                       # number of ReadReq MSHR miss ticks (Tick)
system.cpu.dcache.ReadReq.mshrMissLatency::total    148616500                       # number of ReadReq MSHR miss ticks (Tick)
system.cpu.dcache.ReadReq.mshrMissRate::cpu.data     0.000875                       # mshr miss rate for ReadReq accesses (Ratio)
system.cpu.dcache.ReadReq.mshrMissRate::total     0.000875                       # mshr miss rate for ReadReq accesses (Ratio)
system.cpu.dcache.ReadReq.avgMshrMissLatency::cpu.data 53944.283122                       # average ReadReq mshr miss latency ((Tick/Count))
system.cpu.dcache.ReadReq.avgMshrMissLatency::total 53944.283122                       # average ReadReq mshr miss latency ((Tick/Count))
system.cpu.dcache.WriteReq.hits::cpu.data      1905823                       # number of WriteReq hits (Count)
system.cpu.dcache.WriteReq.hits::total        1905823                       # number of WriteReq hits (Count)
system.cpu.dcache.WriteReq.misses::cpu.data         1136                       # number of WriteReq misses (Count)
system.cpu.dcache.WriteReq.misses::total         1136                       # number of WriteReq misses (Count)
system.cpu.dcache.WriteReq.missLatency::cpu.data     86626000                       # number of WriteReq miss ticks (Tick)
system.cpu.dcache.WriteReq.missLatency::total     86626000                       # number of WriteReq miss ticks (Tick)
system.cpu.dcache.WriteReq.accesses::cpu.data      1906959                       # number of WriteReq accesses(hits+misses) (Count)
system.cpu.dcache.WriteReq.accesses::total      1906959                       # number of WriteReq accesses(hits+misses) (Count)
system.cpu.dcache.WriteReq.missRate::cpu.data     0.000596                       # miss rate for WriteReq accesses (Ratio)
system.cpu.dcache.WriteReq.missRate::total     0.000596                       # miss rate for WriteReq accesses (Ratio)
system.cpu.dcache.WriteReq.avgMissLatency::cpu.data 76255.281690                       # average WriteReq miss latency ((Tick/Count))
system.cpu.dcache.WriteReq.avgMissLatency::total 76255.281690                       # average WriteReq miss latency ((Tick/Count))
system.cpu.dcache.WriteReq.mshrHits::cpu.data            3                       # number of WriteReq MSHR hits (Count)
system.cpu.dcache.WriteReq.mshrHits::total            3                       # number of WriteReq MSHR hits (Count)
system.cpu.dcache.WriteReq.mshrMisses::cpu.data         1133                       # number of WriteReq MSHR misses (Count)
system.cpu.dcache.WriteReq.mshrMisses::total         1133                       # number of WriteReq MSHR misses (Count)
system.cpu.dcache.WriteReq.mshrMissLatency::cpu.data     85387000                       # number of WriteReq MSHR miss ticks (Tick)
system.cpu.dcache.WriteReq.mshrMissLatency::total     85387000                       # number of WriteReq MSHR miss ticks (Tick)
system.cpu.dcache.WriteReq.mshrMissRate::cpu.data     0.000594                       # mshr miss rate for WriteReq accesses (Ratio)
system.cpu.dcache.WriteReq.mshrMissRate::total     0.000594                       # mshr miss rate for WriteReq accesses (Ratio)
system.cpu.dcache.WriteReq.avgMshrMissLatency::cpu.data 75363.636364                       # average WriteReq mshr miss latency ((Tick/Count))
system.cpu.dcache.WriteReq.avgMshrMissLatency::total 75363.636364                       # average WriteReq mshr miss latency ((Tick/Count))
system.cpu.dcache.power_state.pwrStateResidencyTicks::UNDEFINED   3778083000                       # Cumulative time (in ticks) in various power states (Tick)
system.cpu.dcache.tags.tagsInUse           470.581086                       # Average ticks per tags in use ((Tick/Count))
system.cpu.dcache.tags.totalRefs              5044338                       # Total number of references to valid blocks. (Count)
system.cpu.dcache.tags.sampledRefs               3886                       # Sample count of references to valid blocks. (Count)
system.cpu.dcache.tags.avgRefs            1298.079774                       # Average number of references to valid blocks. ((Count/Count))
system.cpu.dcache.tags.warmupTick              176500                       # The tick when the warmup percentage was hit. (Tick)
system.cpu.dcache.tags.occupancies::cpu.data   470.581086                       # Average occupied blocks per tick, per requestor ((Count/Tick))
system.cpu.dcache.tags.avgOccs::cpu.data     0.919104                       # Average percentage of cache occupancy ((Ratio/Tick))
system.cpu.dcache.tags.avgOccs::total        0.919104                       # Average percentage of cache occupancy ((Ratio/Tick))
system.cpu.dcache.tags.occupanciesTaskId::1024          512                       # Occupied blocks per task id (Count)
system.cpu.dcache.tags.ageTaskId_1024::0            5                       # Occupied blocks per task id, per block age (Count)
system.cpu.dcache.tags.ageTaskId_1024::1           39                       # Occupied blocks per task id, per block age (Count)
system.cpu.dcache.tags.ageTaskId_1024::2          384                       # Occupied blocks per task id, per block age (Count)
system.cpu.dcache.tags.ageTaskId_1024::3           84                       # Occupied blocks per task id, per block age (Count)
system.cpu.dcache.tags.ratioOccsTaskId::1024            1                       # Ratio of occupied blocks and all blocks, per task id (Ratio)
system.cpu.dcache.tags.tagAccesses           20227262                       # Number of tag accesses (Count)
system.cpu.dcache.tags.dataAccesses          20227262                       # Number of data accesses (Count)
system.cpu.dcache.tags.power_state.pwrStateResidencyTicks::UNDEFINED   3778083000                       # Cumulative time (in ticks) in various power states (Tick)
system.cpu.decode.idleCycles                  2988535                       # Number of cycles decode is idle (Cycle)
system.cpu.decode.blockedCycles                761182                       # Number of cycles decode is blocked (Cycle)
system.cpu.decode.runCycles                   3513187                       # Number of cycles decode is running (Cycle)
system.cpu.decode.unblockCycles                 46158                       # Number of cycles decode is unblocking (Cycle)
system.cpu.decode.squashCycles                 213014                       # Number of cycles decode is squashing (Cycle)
system.cpu.decode.branchResolved              1136717                       # Number of times decode resolved a branch (Count)
system.cpu.decode.branchMispred                 34610                       # Number of times decode detected a branch misprediction (Count)
system.cpu.decode.decodedInsts               21041381                       # Number of instructions handled by decode (Count)
system.cpu.decode.squashedInsts                 70032                       # Number of squashed instructions handled by decode (Count)
system.cpu.dtb_walker_cache.blockedCycles::no_mshrs            0                       # number of cycles access was blocked (Cycle)
system.cpu.dtb_walker_cache.blockedCycles::no_targets            0                       # number of cycles access was blocked (Cycle)
system.cpu.dtb_walker_cache.blockedCauses::no_mshrs            0                       # number of times access was blocked (Count)
system.cpu.dtb_walker_cache.blockedCauses::no_targets            0                       # number of times access was blocked (Count)
system.cpu.dtb_walker_cache.avgBlocked::no_mshrs          nan                       # average number of cycles each access was blocked ((Cycle/Count))
system.cpu.dtb_walker_cache.avgBlocked::no_targets          nan                       # average number of cycles each access was blocked ((Cycle/Count))
system.cpu.dtb_walker_cache.replacements            0                       # number of replacements (Count)
system.cpu.dtb_walker_cache.power_state.pwrStateResidencyTicks::UNDEFINED   3778083000                       # Cumulative time (in ticks) in various power states (Tick)
system.cpu.dtb_walker_cache.tags.tagsInUse            0                       # Average ticks per tags in use ((Tick/Count))
system.cpu.dtb_walker_cache.tags.totalRefs            0                       # Total number of references to valid blocks. (Count)
system.cpu.dtb_walker_cache.tags.sampledRefs            0                       # Sample count of references to valid blocks. (Count)
system.cpu.dtb_walker_cache.tags.avgRefs          nan                       # Average number of references to valid blocks. ((Count/Count))
system.cpu.dtb_walker_cache.tags.warmupTick            0                       # The tick when the warmup percentage was hit. (Tick)
system.cpu.dtb_walker_cache.tags.tagAccesses            0                       # Number of tag accesses (Count)
system.cpu.dtb_walker_cache.tags.dataAccesses            0                       # Number of data accesses (Count)
system.cpu.dtb_walker_cache.tags.power_state.pwrStateResidencyTicks::UNDEFINED   3778083000                       # Cumulative time (in ticks) in various power states (Tick)
system.cpu.fetch.icacheStallCycles            1932874                       # Number of cycles fetch is stalled on an Icache miss (Cycle)
system.cpu.fetch.insts                       11528255                       # Number of instructions fetch has processed (Count)
system.cpu.fetch.branches                     2672784                       # Number of branches that fetch encountered (Count)
system.cpu.fetch.predictedBranches            1622053                       # Number of branches that fetch has predicted taken (Count)
system.cpu.fetch.cycles                       3814038                       # Number of cycles fetch has run and was not squashing or blocked (Cycle)
system.cpu.fetch.squashCycles                  495226                       # Number of cycles fetch has spent squashing (Cycle)
system.cpu.fetch.miscStallCycles               171576                       # Number of cycles fetch has spent waiting on interrupts, or bad addresses, or out of MSHRs (Cycle)
system.cpu.fetch.pendingTrapStallCycles       1355945                       # Number of stall cycles due to pending traps (Cycle)
system.cpu.fetch.pendingQuiesceStallCycles           30                       # Number of stall cycles due to pending quiesce instructions (Cycle)
system.cpu.fetch.cacheLines                   1888084                       # Number of cache lines fetched (Count)
system.cpu.fetch.icacheSquashes                 39279                       # Number of outstanding Icache misses that were squashed (Count)
system.cpu.fetch.nisnDist::samples            7522076                       # Number of instructions fetched each cycle (Total) (Count)
system.cpu.fetch.nisnDist::mean              2.809551                       # Number of instructions fetched each cycle (Total) (Count)
system.cpu.fetch.nisnDist::stdev             3.403325                       # Number of instructions fetched each cycle (Total) (Count)
system.cpu.fetch.nisnDist::underflows               0      0.00%      0.00% # Number of instructions fetched each cycle (Total) (Count)
system.cpu.fetch.nisnDist::0                  4054733     53.90%     53.90% # Number of instructions fetched each cycle (Total) (Count)
system.cpu.fetch.nisnDist::1                   178367      2.37%     56.28% # Number of instructions fetched each cycle (Total) (Count)
system.cpu.fetch.nisnDist::2                   206671      2.75%     59.02% # Number of instructions fetched each cycle (Total) (Count)
system.cpu.fetch.nisnDist::3                   103558      1.38%     60.40% # Number of instructions fetched each cycle (Total) (Count)
system.cpu.fetch.nisnDist::4                   400780      5.33%     65.73% # Number of instructions fetched each cycle (Total) (Count)
system.cpu.fetch.nisnDist::5                   378374      5.03%     70.76% # Number of instructions fetched each cycle (Total) (Count)
system.cpu.fetch.nisnDist::6                   412759      5.49%     76.25% # Number of instructions fetched each cycle (Total) (Count)
system.cpu.fetch.nisnDist::7                    34944      0.46%     76.71% # Number of instructions fetched each cycle (Total) (Count)
system.cpu.fetch.nisnDist::8                  1751890     23.29%    100.00% # Number of instructions fetched each cycle (Total) (Count)
system.cpu.fetch.nisnDist::overflows                0      0.00%    100.00% # Number of instructions fetched each cycle (Total) (Count)
system.cpu.fetch.nisnDist::min_value                0                       # Number of instructions fetched each cycle (Total) (Count)
system.cpu.fetch.nisnDist::max_value                8                       # Number of instructions fetched each cycle (Total) (Count)
system.cpu.fetch.nisnDist::total              7522076                       # Number of instructions fetched each cycle (Total) (Count)
system.cpu.fetch.branchRate                  0.353722                       # Number of branch fetches per cycle (Ratio)
system.cpu.fetch.rate                        1.525675                       # Number of inst fetches per cycle ((Count/Cycle))
system.cpu.icache.demandHits::cpu.inst        1887479                       # number of demand (read+write) hits (Count)
system.cpu.icache.demandHits::total           1887479                       # number of demand (read+write) hits (Count)
system.cpu.icache.overallHits::cpu.inst       1887479                       # number of overall hits (Count)
system.cpu.icache.overallHits::total          1887479                       # number of overall hits (Count)
system.cpu.icache.demandMisses::cpu.inst          605                       # number of demand (read+write) misses (Count)
system.cpu.icache.demandMisses::total             605                       # number of demand (read+write) misses (Count)
system.cpu.icache.overallMisses::cpu.inst          605                       # number of overall misses (Count)
system.cpu.icache.overallMisses::total            605                       # number of overall misses (Count)
system.cpu.icache.demandMissLatency::cpu.inst     44710000                       # number of demand (read+write) miss ticks (Tick)
system.cpu.icache.demandMissLatency::total     44710000                       # number of demand (read+write) miss ticks (Tick)
system.cpu.icache.overallMissLatency::cpu.inst     44710000                       # number of overall miss ticks (Tick)
system.cpu.icache.overallMissLatency::total     44710000                       # number of overall miss ticks (Tick)
system.cpu.icache.demandAccesses::cpu.inst      1888084                       # number of demand (read+write) accesses (Count)
system.cpu.icache.demandAccesses::total       1888084                       # number of demand (read+write) accesses (Count)
system.cpu.icache.overallAccesses::cpu.inst      1888084                       # number of overall (read+write) accesses (Count)
system.cpu.icache.overallAccesses::total      1888084                       # number of overall (read+write) accesses (Count)
system.cpu.icache.demandMissRate::cpu.inst     0.000320                       # miss rate for demand accesses (Ratio)
system.cpu.icache.demandMissRate::total      0.000320                       # miss rate for demand accesses (Ratio)
system.cpu.icache.overallMissRate::cpu.inst     0.000320                       # miss rate for overall accesses (Ratio)
system.cpu.icache.overallMissRate::total     0.000320                       # miss rate for overall accesses (Ratio)
system.cpu.icache.demandAvgMissLatency::cpu.inst 73900.826446                       # average overall miss latency ((Cycle/Count))
system.cpu.icache.demandAvgMissLatency::total 73900.826446                       # average overall miss latency ((Cycle/Count))
system.cpu.icache.overallAvgMissLatency::cpu.inst 73900.826446                       # average overall miss latency ((Cycle/Count))
system.cpu.icache.overallAvgMissLatency::total 73900.826446                       # average overall miss latency ((Cycle/Count))
system.cpu.icache.blockedCycles::no_mshrs            0                       # number of cycles access was blocked (Cycle)
system.cpu.icache.blockedCycles::no_targets            0                       # number of cycles access was blocked (Cycle)
system.cpu.icache.blockedCauses::no_mshrs            0                       # number of times access was blocked (Count)
system.cpu.icache.blockedCauses::no_targets            0                       # number of times access was blocked (Count)
system.cpu.icache.avgBlocked::no_mshrs            nan                       # average number of cycles each access was blocked ((Cycle/Count))
system.cpu.icache.avgBlocked::no_targets          nan                       # average number of cycles each access was blocked ((Cycle/Count))
system.cpu.icache.writebacks::writebacks           58                       # number of writebacks (Count)
system.cpu.icache.writebacks::total                58                       # number of writebacks (Count)
system.cpu.icache.demandMshrHits::cpu.inst          162                       # number of demand (read+write) MSHR hits (Count)
system.cpu.icache.demandMshrHits::total           162                       # number of demand (read+write) MSHR hits (Count)
system.cpu.icache.overallMshrHits::cpu.inst          162                       # number of overall MSHR hits (Count)
system.cpu.icache.overallMshrHits::total          162                       # number of overall MSHR hits (Count)
system.cpu.icache.demandMshrMisses::cpu.inst          443                       # number of demand (read+write) MSHR misses (Count)
system.cpu.icache.demandMshrMisses::total          443                       # number of demand (read+write) MSHR misses (Count)
system.cpu.icache.overallMshrMisses::cpu.inst          443                       # number of overall MSHR misses (Count)
system.cpu.icache.overallMshrMisses::total          443                       # number of overall MSHR misses (Count)
system.cpu.icache.demandMshrMissLatency::cpu.inst     34762000                       # number of demand (read+write) MSHR miss ticks (Tick)
system.cpu.icache.demandMshrMissLatency::total     34762000                       # number of demand (read+write) MSHR miss ticks (Tick)
system.cpu.icache.overallMshrMissLatency::cpu.inst     34762000                       # number of overall MSHR miss ticks (Tick)
system.cpu.icache.overallMshrMissLatency::total     34762000                       # number of overall MSHR miss ticks (Tick)
system.cpu.icache.demandMshrMissRate::cpu.inst     0.000235                       # mshr miss ratio for demand accesses (Ratio)
system.cpu.icache.demandMshrMissRate::total     0.000235                       # mshr miss ratio for demand accesses (Ratio)
system.cpu.icache.overallMshrMissRate::cpu.inst     0.000235                       # mshr miss ratio for overall accesses (Ratio)
system.cpu.icache.overallMshrMissRate::total     0.000235                       # mshr miss ratio for overall accesses (Ratio)
system.cpu.icache.demandAvgMshrMissLatency::cpu.inst 78469.525959                       # average overall mshr miss latency ((Cycle/Count))
system.cpu.icache.demandAvgMshrMissLatency::total 78469.525959                       # average overall mshr miss latency ((Cycle/Count))
system.cpu.icache.overallAvgMshrMissLatency::cpu.inst 78469.525959                       # average overall mshr miss latency ((Cycle/Count))
system.cpu.icache.overallAvgMshrMissLatency::total 78469.525959                       # average overall mshr miss latency ((Cycle/Count))
system.cpu.icache.replacements                     58                       # number of replacements (Count)
system.cpu.icache.ReadReq.hits::cpu.inst      1887479                       # number of ReadReq hits (Count)
system.cpu.icache.ReadReq.hits::total         1887479                       # number of ReadReq hits (Count)
system.cpu.icache.ReadReq.misses::cpu.inst          605                       # number of ReadReq misses (Count)
system.cpu.icache.ReadReq.misses::total           605                       # number of ReadReq misses (Count)
system.cpu.icache.ReadReq.missLatency::cpu.inst     44710000                       # number of ReadReq miss ticks (Tick)
system.cpu.icache.ReadReq.missLatency::total     44710000                       # number of ReadReq miss ticks (Tick)
system.cpu.icache.ReadReq.accesses::cpu.inst      1888084                       # number of ReadReq accesses(hits+misses) (Count)
system.cpu.icache.ReadReq.accesses::total      1888084                       # number of ReadReq accesses(hits+misses) (Count)
system.cpu.icache.ReadReq.missRate::cpu.inst     0.000320                       # miss rate for ReadReq accesses (Ratio)
system.cpu.icache.ReadReq.missRate::total     0.000320                       # miss rate for ReadReq accesses (Ratio)
system.cpu.icache.ReadReq.avgMissLatency::cpu.inst 73900.826446                       # average ReadReq miss latency ((Tick/Count))
system.cpu.icache.ReadReq.avgMissLatency::total 73900.826446                       # average ReadReq miss latency ((Tick/Count))
system.cpu.icache.ReadReq.mshrHits::cpu.inst          162                       # number of ReadReq MSHR hits (Count)
system.cpu.icache.ReadReq.mshrHits::total          162                       # number of ReadReq MSHR hits (Count)
system.cpu.icache.ReadReq.mshrMisses::cpu.inst          443                       # number of ReadReq MSHR misses (Count)
system.cpu.icache.ReadReq.mshrMisses::total          443                       # number of ReadReq MSHR misses (Count)
system.cpu.icache.ReadReq.mshrMissLatency::cpu.inst     34762000                       # number of ReadReq MSHR miss ticks (Tick)
system.cpu.icache.ReadReq.mshrMissLatency::total     34762000                       # number of ReadReq MSHR miss ticks (Tick)
system.cpu.icache.ReadReq.mshrMissRate::cpu.inst     0.000235                       # mshr miss rate for ReadReq accesses (Ratio)
system.cpu.icache.ReadReq.mshrMissRate::total     0.000235                       # mshr miss rate for ReadReq accesses (Ratio)
system.cpu.icache.ReadReq.avgMshrMissLatency::cpu.inst 78469.525959                       # average ReadReq mshr miss latency ((Tick/Count))
system.cpu.icache.ReadReq.avgMshrMissLatency::total 78469.525959                       # average ReadReq mshr miss latency ((Tick/Count))
system.cpu.icache.power_state.pwrStateResidencyTicks::UNDEFINED   3778083000                       # Cumulative time (in ticks) in various power states (Tick)
system.cpu.icache.tags.tagsInUse           373.633324                       # Average ticks per tags in use ((Tick/Count))
system.cpu.icache.tags.totalRefs              1887922                       # Total number of references to valid blocks. (Count)
system.cpu.icache.tags.sampledRefs                443                       # Sample count of references to valid blocks. (Count)
system.cpu.icache.tags.avgRefs            4261.674944                       # Average number of references to valid blocks. ((Count/Count))
system.cpu.icache.tags.warmupTick               87500                       # The tick when the warmup percentage was hit. (Tick)
system.cpu.icache.tags.occupancies::cpu.inst   373.633324                       # Average occupied blocks per tick, per requestor ((Count/Tick))
system.cpu.icache.tags.avgOccs::cpu.inst     0.729753                       # Average percentage of cache occupancy ((Ratio/Tick))
system.cpu.icache.tags.avgOccs::total        0.729753                       # Average percentage of cache occupancy ((Ratio/Tick))
system.cpu.icache.tags.occupanciesTaskId::1024          383                       # Occupied blocks per task id (Count)
system.cpu.icache.tags.ageTaskId_1024::3          383                       # Occupied blocks per task id, per block age (Count)
system.cpu.icache.tags.ratioOccsTaskId::1024     0.748047                       # Ratio of occupied blocks and all blocks, per task id (Ratio)
system.cpu.icache.tags.tagAccesses            7552779                       # Number of tag accesses (Count)
system.cpu.icache.tags.dataAccesses           7552779                       # Number of data accesses (Count)
system.cpu.icache.tags.power_state.pwrStateResidencyTicks::UNDEFINED   3778083000                       # Cumulative time (in ticks) in various power states (Tick)
system.cpu.interrupts.clk_domain.clock           8000                       # Clock period in ticks (Tick)
system.cpu.itb_walker_cache.blockedCycles::no_mshrs            0                       # number of cycles access was blocked (Cycle)
system.cpu.itb_walker_cache.blockedCycles::no_targets            0                       # number of cycles access was blocked (Cycle)
system.cpu.itb_walker_cache.blockedCauses::no_mshrs            0                       # number of times access was blocked (Count)
system.cpu.itb_walker_cache.blockedCauses::no_targets            0                       # number of times access was blocked (Count)
system.cpu.itb_walker_cache.avgBlocked::no_mshrs          nan                       # average number of cycles each access was blocked ((Cycle/Count))
system.cpu.itb_walker_cache.avgBlocked::no_targets          nan                       # average number of cycles each access was blocked ((Cycle/Count))
system.cpu.itb_walker_cache.replacements            0                       # number of replacements (Count)
system.cpu.itb_walker_cache.power_state.pwrStateResidencyTicks::UNDEFINED   3778083000                       # Cumulative time (in ticks) in various power states (Tick)
system.cpu.itb_walker_cache.tags.tagsInUse            0                       # Average ticks per tags in use ((Tick/Count))
system.cpu.itb_walker_cache.tags.totalRefs            0                       # Total number of references to valid blocks. (Count)
system.cpu.itb_walker_cache.tags.sampledRefs            0                       # Sample count of references to valid blocks. (Count)
system.cpu.itb_walker_cache.tags.avgRefs          nan                       # Average number of references to valid blocks. ((Count/Count))
system.cpu.itb_walker_cache.tags.warmupTick            0                       # The tick when the warmup percentage was hit. (Tick)
system.cpu.itb_walker_cache.tags.tagAccesses            0                       # Number of tag accesses (Count)
system.cpu.itb_walker_cache.tags.dataAccesses            0                       # Number of data accesses (Count)
system.cpu.itb_walker_cache.tags.power_state.pwrStateResidencyTicks::UNDEFINED   3778083000                       # Cumulative time (in ticks) in various power states (Tick)
system.cpu.lsq0.forwLoads                      722841                       # Number of loads that had data forwarded from stores (Count)
system.cpu.lsq0.squashedLoads                  647719                       # Number of loads squashed (Count)
system.cpu.lsq0.ignoredResponses                   21                       # Number of memory responses ignored because the instruction is squashed (Count)
system.cpu.lsq0.memOrderViolation                 301                       # Number of memory ordering violations (Count)
system.cpu.lsq0.squashedStores                 247372                       # Number of stores squashed (Count)
system.cpu.lsq0.rescheduledLoads                    0                       # Number of loads that were rescheduled (Count)
system.cpu.lsq0.blockedByCache                     11                       # Number of times an access to memory failed due to the cache being blocked (Count)
system.cpu.lsq0.loadToUse::samples            3485730                       # Distribution of cycle latency between the first time a load is issued and its completion (Unspecified)
system.cpu.lsq0.loadToUse::mean              3.220670                       # Distribution of cycle latency between the first time a load is issued and its completion (Unspecified)
system.cpu.lsq0.loadToUse::stdev             1.849401                       # Distribution of cycle latency between the first time a load is issued and its completion (Unspecified)
system.cpu.lsq0.loadToUse::0-9                3474093     99.67%     99.67% # Distribution of cycle latency between the first time a load is issued and its completion (Unspecified)
system.cpu.lsq0.loadToUse::10-19                 5943      0.17%     99.84% # Distribution of cycle latency between the first time a load is issued and its completion (Unspecified)
system.cpu.lsq0.loadToUse::20-29                 5465      0.16%     99.99% # Distribution of cycle latency between the first time a load is issued and its completion (Unspecified)
system.cpu.lsq0.loadToUse::30-39                    8      0.00%     99.99% # Distribution of cycle latency between the first time a load is issued and its completion (Unspecified)
system.cpu.lsq0.loadToUse::40-49                    2      0.00%     99.99% # Distribution of cycle latency between the first time a load is issued and its completion (Unspecified)
system.cpu.lsq0.loadToUse::50-59                    1      0.00%     99.99% # Distribution of cycle latency between the first time a load is issued and its completion (Unspecified)
system.cpu.lsq0.loadToUse::60-69                    1      0.00%     99.99% # Distribution of cycle latency between the first time a load is issued and its completion (Unspecified)
system.cpu.lsq0.loadToUse::100-109                  1      0.00%     99.99% # Distribution of cycle latency between the first time a load is issued and its completion (Unspecified)
system.cpu.lsq0.loadToUse::120-129                  4      0.00%     99.99% # Distribution of cycle latency between the first time a load is issued and its completion (Unspecified)
system.cpu.lsq0.loadToUse::130-139                  2      0.00%     99.99% # Distribution of cycle latency between the first time a load is issued and its completion (Unspecified)
[...]
system.mem_ctrls.dram.perBankWrBursts::13            0                       # Per bank write bursts (Count)
system.mem_ctrls.dram.perBankWrBursts::14            0                       # Per bank write bursts (Count)
system.mem_ctrls.dram.perBankWrBursts::15            0                       # Per bank write bursts (Count)
system.mem_ctrls.dram.totQLat                23447500                       # Total ticks spent queuing (Tick)
system.mem_ctrls.dram.totBusLat              16290000                       # Total ticks spent in databus transfers (Tick)
system.mem_ctrls.dram.totMemAccLat           84535000                       # Total ticks spent from burst creation until serviced by the DRAM (Tick)
system.mem_ctrls.dram.avgQLat                 7196.90                       # Average queueing delay per DRAM burst ((Tick/Count))
system.mem_ctrls.dram.avgBusLat               5000.00                       # Average bus latency per DRAM burst ((Tick/Count))
system.mem_ctrls.dram.avgMemAccLat           25946.90                       # Average memory access latency per DRAM burst ((Tick/Count))
system.mem_ctrls.dram.readRowHits                2576                       # Number of row buffer hits during reads (Count)
system.mem_ctrls.dram.writeRowHits                  0                       # Number of row buffer hits during writes (Count)
system.mem_ctrls.dram.readRowHitRate            79.07                       # Row buffer hit rate for reads (Ratio)
system.mem_ctrls.dram.writeRowHitRate             nan                       # Row buffer hit rate for writes (Ratio)
system.mem_ctrls.dram.bytesPerActivate::samples          681                       # Bytes accessed per row activation (Byte)
system.mem_ctrls.dram.bytesPerActivate::mean   306.091043                       # Bytes accessed per row activation (Byte)
system.mem_ctrls.dram.bytesPerActivate::gmean   235.469773                       # Bytes accessed per row activation (Byte)
system.mem_ctrls.dram.bytesPerActivate::stdev   262.297088                       # Bytes accessed per row activation (Byte)
system.mem_ctrls.dram.bytesPerActivate::0-127           67      9.84%      9.84% # Bytes accessed per row activation (Byte)
system.mem_ctrls.dram.bytesPerActivate::128-255          288     42.29%     52.13% # Bytes accessed per row activation (Byte)
system.mem_ctrls.dram.bytesPerActivate::256-383          194     28.49%     80.62% # Bytes accessed per row activation (Byte)
system.mem_ctrls.dram.bytesPerActivate::384-511           38      5.58%     86.20% # Bytes accessed per row activation (Byte)
system.mem_ctrls.dram.bytesPerActivate::512-639           11      1.62%     87.81% # Bytes accessed per row activation (Byte)
system.mem_ctrls.dram.bytesPerActivate::640-767           10      1.47%     89.28% # Bytes accessed per row activation (Byte)
system.mem_ctrls.dram.bytesPerActivate::768-895            7      1.03%     90.31% # Bytes accessed per row activation (Byte)
system.mem_ctrls.dram.bytesPerActivate::896-1023            3      0.44%     90.75% # Bytes accessed per row activation (Byte)
system.mem_ctrls.dram.bytesPerActivate::1024-1151           63      9.25%    100.00% # Bytes accessed per row activation (Byte)
system.mem_ctrls.dram.bytesPerActivate::total          681                       # Bytes accessed per row activation (Byte)
system.mem_ctrls.dram.bytesRead                208512                       # Total number of bytes read from DRAM (Byte)
system.mem_ctrls.dram.bytesWritten                  0                       # Total number of bytes written to DRAM (Byte)
system.mem_ctrls.dram.avgRdBW               55.189894                       # Average DRAM read bandwidth in MiBytes/s ((Byte/Second))
system.mem_ctrls.dram.avgWrBW                       0                       # Average DRAM write bandwidth in MiBytes/s ((Byte/Second))
system.mem_ctrls.dram.peakBW                 12800.00                       # Theoretical peak bandwidth in MiByte/s ((Byte/Second))
system.mem_ctrls.dram.busUtil                    0.43                       # Data bus utilization in percentage (Ratio)
system.mem_ctrls.dram.busUtilRead                0.43                       # Data bus utilization in percentage for reads (Ratio)
system.mem_ctrls.dram.busUtilWrite               0.00                       # Data bus utilization in percentage for writes (Ratio)
system.mem_ctrls.dram.pageHitRate               79.07                       # Row buffer hit rate, read and write combined (Ratio)
system.mem_ctrls.dram.power_state.pwrStateResidencyTicks::UNDEFINED   3778083000                       # Cumulative time (in ticks) in various power states (Tick)
system.mem_ctrls.dram.rank0.actEnergy         2741760                       # Energy for activate commands per rank (pJ) (Joule)
system.mem_ctrls.dram.rank0.preEnergy         1457280                       # Energy for precharge commands per rank (pJ) (Joule)
system.mem_ctrls.dram.rank0.readEnergy       13087620                       # Energy for read commands per rank (pJ) (Joule)
system.mem_ctrls.dram.rank0.writeEnergy             0                       # Energy for write commands per rank (pJ) (Joule)
system.mem_ctrls.dram.rank0.refreshEnergy 298100400.000000                       # Energy for refresh commands per rank (pJ) (Joule)
system.mem_ctrls.dram.rank0.actBackEnergy    777286770                       # Energy for active background per rank (pJ) (Joule)
system.mem_ctrls.dram.rank0.preBackEnergy    796226880                       # Energy for precharge background per rank (pJ) (Joule)
system.mem_ctrls.dram.rank0.actPowerDownEnergy            0                       # Energy for active power-down per rank (pJ) (Joule)
system.mem_ctrls.dram.rank0.prePowerDownEnergy            0                       # Energy for precharge power-down per rank (pJ) (Joule)
system.mem_ctrls.dram.rank0.selfRefreshEnergy            0                       # Energy for self refresh per rank (pJ) (Joule)
system.mem_ctrls.dram.rank0.totalEnergy    1888900710                       # Total energy per rank (pJ) (Joule)
system.mem_ctrls.dram.rank0.averagePower   499.962735                       # Core power per rank (mW) (Watt)
system.mem_ctrls.dram.rank0.totalIdleTime            0                       # Total Idle time Per DRAM Rank (Tick)
system.mem_ctrls.dram.rank0.pwrStateTime::IDLE   2063157500                       # Time in different power states (Tick)
system.mem_ctrls.dram.rank0.pwrStateTime::REF    126100000                       # Time in different power states (Tick)
system.mem_ctrls.dram.rank0.pwrStateTime::SREF            0                       # Time in different power states (Tick)
system.mem_ctrls.dram.rank0.pwrStateTime::PRE_PDN            0                       # Time in different power states (Tick)
system.mem_ctrls.dram.rank0.pwrStateTime::ACT   1588825500                       # Time in different power states (Tick)
system.mem_ctrls.dram.rank0.pwrStateTime::ACT_PDN            0                       # Time in different power states (Tick)
system.mem_ctrls.dram.rank1.actEnergy         2127720                       # Energy for activate commands per rank (pJ) (Joule)
system.mem_ctrls.dram.rank1.preEnergy         1127115                       # Energy for precharge commands per rank (pJ) (Joule)
system.mem_ctrls.dram.rank1.readEnergy       10174500                       # Energy for read commands per rank (pJ) (Joule)
system.mem_ctrls.dram.rank1.writeEnergy             0                       # Energy for write commands per rank (pJ) (Joule)
system.mem_ctrls.dram.rank1.refreshEnergy 298100400.000000                       # Energy for refresh commands per rank (pJ) (Joule)
system.mem_ctrls.dram.rank1.actBackEnergy    737071560                       # Energy for active background per rank (pJ) (Joule)
system.mem_ctrls.dram.rank1.preBackEnergy    830092320                       # Energy for precharge background per rank (pJ) (Joule)
system.mem_ctrls.dram.rank1.actPowerDownEnergy            0                       # Energy for active power-down per rank (pJ) (Joule)
system.mem_ctrls.dram.rank1.prePowerDownEnergy            0                       # Energy for precharge power-down per rank (pJ) (Joule)
system.mem_ctrls.dram.rank1.selfRefreshEnergy            0                       # Energy for self refresh per rank (pJ) (Joule)
system.mem_ctrls.dram.rank1.totalEnergy    1878693615                       # Total energy per rank (pJ) (Joule)
system.mem_ctrls.dram.rank1.averagePower   497.261075                       # Core power per rank (mW) (Watt)
system.mem_ctrls.dram.rank1.totalIdleTime            0                       # Total Idle time Per DRAM Rank (Tick)
system.mem_ctrls.dram.rank1.pwrStateTime::IDLE   2151478750                       # Time in different power states (Tick)
system.mem_ctrls.dram.rank1.pwrStateTime::REF    126100000                       # Time in different power states (Tick)
system.mem_ctrls.dram.rank1.pwrStateTime::SREF            0                       # Time in different power states (Tick)
system.mem_ctrls.dram.rank1.pwrStateTime::PRE_PDN            0                       # Time in different power states (Tick)
system.mem_ctrls.dram.rank1.pwrStateTime::ACT   1500504250                       # Time in different power states (Tick)
system.mem_ctrls.dram.rank1.pwrStateTime::ACT_PDN            0                       # Time in different power states (Tick)
system.mem_ctrls.power_state.pwrStateResidencyTicks::UNDEFINED   3778083000                       # Cumulative time (in ticks) in various power states (Tick)
system.membus.transDist::ReadResp                2130                       # Transaction distribution (Count)
system.membus.transDist::CleanEvict                 3                       # Transaction distribution (Count)
system.membus.transDist::ReadExReq               1128                       # Transaction distribution (Count)
system.membus.transDist::ReadExResp              1128                       # Transaction distribution (Count)
system.membus.transDist::ReadSharedReq           2130                       # Transaction distribution (Count)
system.membus.pktCount_system.l2.mem_side_port::system.mem_ctrls.port         6519                       # Packet count per connected requestor and responder (Count)
system.membus.pktCount_system.l2.mem_side_port::total         6519                       # Packet count per connected requestor and responder (Count)
system.membus.pktCount::total                    6519                       # Packet count per connected requestor and responder (Count)
system.membus.pktSize_system.l2.mem_side_port::system.mem_ctrls.port       208512                       # Cumulative packet size per connected requestor and responder (Byte)
system.membus.pktSize_system.l2.mem_side_port::total       208512                       # Cumulative packet size per connected requestor and responder (Byte)
system.membus.pktSize::total                   208512                       # Cumulative packet size per connected requestor and responder (Byte)
system.membus.snoops                                0                       # Total snoops (Count)
system.membus.snoopTraffic                          0                       # Total snoop traffic (Byte)
system.membus.snoopFanout::samples               3258                       # Request fanout histogram (Count)
system.membus.snoopFanout::mean                     0                       # Request fanout histogram (Count)
system.membus.snoopFanout::stdev                    0                       # Request fanout histogram (Count)
system.membus.snoopFanout::underflows               0      0.00%      0.00% # Request fanout histogram (Count)
system.membus.snoopFanout::0                     3258    100.00%    100.00% # Request fanout histogram (Count)
system.membus.snoopFanout::1                        0      0.00%    100.00% # Request fanout histogram (Count)
system.membus.snoopFanout::overflows                0      0.00%    100.00% # Request fanout histogram (Count)
system.membus.snoopFanout::min_value                0                       # Request fanout histogram (Count)
system.membus.snoopFanout::max_value                0                       # Request fanout histogram (Count)
system.membus.snoopFanout::total                 3258                       # Request fanout histogram (Count)
system.membus.power_state.pwrStateResidencyTicks::UNDEFINED   3778083000                       # Cumulative time (in ticks) in various power states (Tick)
system.membus.reqLayer2.occupancy             4178000                       # Layer occupancy (ticks) (Tick)
system.membus.reqLayer2.utilization               0.0                       # Layer utilization (Ratio)
system.membus.respLayer1.occupancy           17276000                       # Layer occupancy (ticks) (Tick)
system.membus.respLayer1.utilization              0.0                       # Layer utilization (Ratio)
system.membus.snoop_filter.totRequests           3261                       # Total number of requests made to the snoop filter. (Count)
system.membus.snoop_filter.hitSingleRequests            3                       # Number of requests hitting in the snoop filter with a single holder of the requested data. (Count)
system.membus.snoop_filter.hitMultiRequests            0                       # Number of requests hitting in the snoop filter with multiple (>1) holders of the requested data. (Count)
system.membus.snoop_filter.totSnoops                0                       # Total number of snoops made to the snoop filter. (Count)
system.membus.snoop_filter.hitSingleSnoops            0                       # Number of snoops hitting in the snoop filter with a single holder of the requested data. (Count)
system.membus.snoop_filter.hitMultiSnoops            0                       # Number of snoops hitting in the snoop filter with multiple (>1) holders of the requested data. (Count)
system.tol2bus.transDist::ReadResp               3198                       # Transaction distribution (Count)
system.tol2bus.transDist::WritebackDirty         1195                       # Transaction distribution (Count)
system.tol2bus.transDist::WritebackClean           58                       # Transaction distribution (Count)
system.tol2bus.transDist::CleanEvict             2211                       # Transaction distribution (Count)
system.tol2bus.transDist::UpgradeReq                2                       # Transaction distribution (Count)
system.tol2bus.transDist::UpgradeResp               2                       # Transaction distribution (Count)
system.tol2bus.transDist::ReadExReq              1131                       # Transaction distribution (Count)
system.tol2bus.transDist::ReadExResp             1131                       # Transaction distribution (Count)
system.tol2bus.transDist::ReadCleanReq            443                       # Transaction distribution (Count)
system.tol2bus.transDist::ReadSharedReq          2755                       # Transaction distribution (Count)
system.tol2bus.pktCount_system.cpu.icache.mem_side_port::system.l2.cpu_side_port          941                       # Packet count per connected requestor and responder (Count)
system.tol2bus.pktCount_system.cpu.dcache.mem_side_port::system.l2.cpu_side_port        11150                       # Packet count per connected requestor and responder (Count)
system.tol2bus.pktCount::total                  12091                       # Packet count per connected requestor and responder (Count)
system.tol2bus.pktSize_system.cpu.icache.mem_side_port::system.l2.cpu_side_port        31872                       # Cumulative packet size per connected requestor and responder (Byte)
system.tol2bus.pktSize_system.cpu.dcache.mem_side_port::system.l2.cpu_side_port       325184                       # Cumulative packet size per connected requestor and responder (Byte)
system.tol2bus.pktSize::total                  357056                       # Cumulative packet size per connected requestor and responder (Byte)
system.tol2bus.snoops                              35                       # Total snoops (Count)
system.tol2bus.snoopTraffic                       192                       # Total snoop traffic (Byte)
system.tol2bus.snoopFanout::samples              4363                       # Request fanout histogram (Count)
system.tol2bus.snoopFanout::mean             0.008710                       # Request fanout histogram (Count)
system.tol2bus.snoopFanout::stdev            0.092929                       # Request fanout histogram (Count)
system.tol2bus.snoopFanout::underflows              0      0.00%      0.00% # Request fanout histogram (Count)
system.tol2bus.snoopFanout::0                    4325     99.13%     99.13% # Request fanout histogram (Count)
system.tol2bus.snoopFanout::1                      38      0.87%    100.00% # Request fanout histogram (Count)
system.tol2bus.snoopFanout::2                       0      0.00%    100.00% # Request fanout histogram (Count)
system.tol2bus.snoopFanout::3                       0      0.00%    100.00% # Request fanout histogram (Count)
system.tol2bus.snoopFanout::4                       0      0.00%    100.00% # Request fanout histogram (Count)
system.tol2bus.snoopFanout::overflows               0      0.00%    100.00% # Request fanout histogram (Count)
system.tol2bus.snoopFanout::min_value               0                       # Request fanout histogram (Count)
system.tol2bus.snoopFanout::max_value               1                       # Request fanout histogram (Count)
system.tol2bus.snoopFanout::total                4363                       # Request fanout histogram (Count)
system.tol2bus.power_state.pwrStateResidencyTicks::UNDEFINED   3778083000                       # Cumulative time (in ticks) in various power states (Tick)
system.tol2bus.reqLayer0.occupancy            5134500                       # Layer occupancy (ticks) (Tick)
system.tol2bus.reqLayer0.utilization              0.0                       # Layer utilization (Ratio)
system.tol2bus.respLayer0.occupancy            664500                       # Layer occupancy (ticks) (Tick)
system.tol2bus.respLayer0.utilization             0.0                       # Layer utilization (Ratio)
system.tol2bus.respLayer1.occupancy           5830000                       # Layer occupancy (ticks) (Tick)
system.tol2bus.respLayer1.utilization             0.0                       # Layer utilization (Ratio)
system.tol2bus.snoop_filter.totRequests          7763                       # Total number of requests made to the snoop filter. (Count)
system.tol2bus.snoop_filter.hitSingleRequests         3434                       # Number of requests hitting in the snoop filter with a single holder of the requested data. (Count)
system.tol2bus.snoop_filter.hitMultiRequests            7                       # Number of requests hitting in the snoop filter with multiple (>1) holders of the requested data. (Count)
system.tol2bus.snoop_filter.totSnoops              29                       # Total number of snoops made to the snoop filter. (Count)
system.tol2bus.snoop_filter.hitSingleSnoops           29                       # Number of snoops hitting in the snoop filter with a single holder of the requested data. (Count)
system.tol2bus.snoop_filter.hitMultiSnoops            0                       # Number of snoops hitting in the snoop filter with multiple (>1) holders of the requested data. (Count)
system.voltage_domain.voltage                       1                       # Voltage in Volts (Volt)
system.workload.inst.arm                            0                       # number of arm instructions executed (Count)
system.workload.inst.quiesce                        0                       # number of quiesce instructions executed (Count)

---------- End Simulation Statistics   ----------
