
---------- Begin Simulation Statistics ----------
simSeconds                                   0.003426                       # Number of seconds simulated (Second)
simTicks                                   3426332500                       # Number of ticks simulated (Tick)
finalTick                                  3426332500                       # Number of ticks from beginning of simulation (restored from checkpoints and never reset) (Tick)
simFreq                                  1000000000000                       # The number of ticks per simulated second ((Tick/Second))
hostSeconds                                    112.61                       # Real time elapsed on the host (Second)
hostTickRate                                 30425510                       # The number of ticks simulated per host second (ticks/s) ((Tick/Second))
hostMemory                                     648484                       # Number of bytes of host memory used (Byte)
simInsts                                     10000000                       # Number of instructions simulated (Count)
simOps                                       19249505                       # Number of ops (including micro ops) simulated (Count)
hostInstRate                                    88799                       # Simulator instruction rate (inst/s) ((Count/Second))
hostOpRate                                     170933                       # Simulator op (including micro ops) rate (op/s) ((Count/Second))
system.clk_domain.clock                          1000                       # Clock period in ticks (Tick)
system.cpu.numCycles                          6852667                       # Number of cpu cycles simulated (Cycle)
system.cpu.numWorkItemsStarted                      0                       # Number of work items this cpu started (Count)
system.cpu.numWorkItemsCompleted                    0                       # Number of work items this cpu completed (Count)
system.cpu.instsAdded                        23004701                       # Number of instructions added to the IQ (excludes non-spec) (Count)
system.cpu.nonSpecInstsAdded                    14943                       # Number of non-speculative instructions added to the IQ (Count)
system.cpu.instsIssued                       21788957                       # Number of instructions issued (Count)
system.cpu.squashedInstsIssued                  15942                       # Number of squashed instructions issued (Count)
system.cpu.squashedInstsExamined              3770113                       # Number of squashed instructions iterated over during squash; mainly for profiling (Count)
system.cpu.squashedOperandsExamined           5491323                       # Number of squashed operands that are examined and possibly removed from graph (Count)
system.cpu.squashedNonSpecRemoved                1247                       # Number of squashed non-spec instructions that were removed (Count)
system.cpu.numIssuedDist::samples             6797818                       # Number of insts issued each cycle (Count)
system.cpu.numIssuedDist::mean               3.205287                       # Number of insts issued each cycle (Count)
system.cpu.numIssuedDist::stdev              2.498697                       # Number of insts issued each cycle (Count)
system.cpu.numIssuedDist::underflows                0      0.00%      0.00% # Number of insts issued each cycle (Count)
system.cpu.numIssuedDist::0                   1533856     22.56%     22.56% # Number of insts issued each cycle (Count)
system.cpu.numIssuedDist::1                    617388      9.08%     31.65% # Number of insts issued each cycle (Count)
system.cpu.numIssuedDist::2                    717486     10.55%     42.20% # Number of insts issued each cycle (Count)
system.cpu.numIssuedDist::3                    850898     12.52%     54.72% # Number of insts issued each cycle (Count)
system.cpu.numIssuedDist::4                    808658     11.90%     66.61% # Number of insts issued each cycle (Count)
system.cpu.numIssuedDist::5                    783620     11.53%     78.14% # Number of insts issued each cycle (Count)
system.cpu.numIssuedDist::6                    675510      9.94%     88.08% # Number of insts issued each cycle (Count)
system.cpu.numIssuedDist::7                    505105      7.43%     95.51% # Number of insts issued each cycle (Count)
system.cpu.numIssuedDist::8                    305297      4.49%    100.00% # Number of insts issued each cycle (Count)
system.cpu.numIssuedDist::overflows                 0      0.00%    100.00% # Number of insts issued each cycle (Count)
system.cpu.numIssuedDist::min_value                 0                       # Number of insts issued each cycle (Count)
system.cpu.numIssuedDist::max_value                 8                       # Number of insts issued each cycle (Count)
system.cpu.numIssuedDist::total               6797818                       # Number of insts issued each cycle (Count)
system.cpu.statFuBusy::No_OpClass                   0      0.00%      0.00% # attempts to use FU when none available (Count)
system.cpu.statFuBusy::IntAlu                  287311     63.34%     63.34% # attempts to use FU when none available (Count)
system.cpu.statFuBusy::IntMult                      0      0.00%     63.34% # attempts to use FU when none available (Count)
system.cpu.statFuBusy::IntDiv                       0      0.00%     63.34% # attempts to use FU when none available (Count)
system.cpu.statFuBusy::FloatAdd                     0      0.00%     63.34% # attempts to use FU when none available (Count)
system.cpu.statFuBusy::FloatCmp                     0      0.00%     63.34% # attempts to use FU when none available (Count)
system.cpu.statFuBusy::FloatCvt                     0      0.00%     63.34% # attempts to use FU when none available (Count)
system.cpu.statFuBusy::FloatMult                    0      0.00%     63.34% # attempts to use FU when none available (Count)
system.cpu.statFuBusy::FloatMultAcc                 0      0.00%     63.34% # attempts to use FU when none available (Count)
system.cpu.statFuBusy::FloatDiv                     0      0.00%     63.34% # attempts to use FU when none available (Count)
system.cpu.statFuBusy::FloatMisc                    0      0.00%     63.34% # attempts to use FU when none available (Count)
system.cpu.statFuBusy::FloatSqrt                    0      0.00%     63.34% # attempts to use FU when none available (Count)
system.cpu.statFuBusy::SimdAdd                      0      0.00%     63.34% # attempts to use FU when none available (Count)
system.cpu.statFuBusy::SimdAddAcc                   0      0.00%     63.34% # attempts to use FU when none available (Count)
system.cpu.statFuBusy::SimdAlu                      0      0.00%     63.34% # attempts to use FU when none available (Count)
system.cpu.statFuBusy::SimdCmp                      0      0.00%     63.34% # attempts to use FU when none available (Count)
system.cpu.statFuBusy::SimdCvt                      0      0.00%     63.34% # attempts to use FU when none available (Count)
system.cpu.statFuBusy::SimdMisc                     0      0.00%     63.34% # attempts to use FU when none available (Count)
system.cpu.statFuBusy::SimdMult                     0      0.00%     63.34% # attempts to use FU when none available (Count)
system.cpu.statFuBusy::SimdMultAcc                  0      0.00%     63.34% # attempts to use FU when none available (Count)
system.cpu.statFuBusy::SimdShift                    0      0.00%     63.34% # attempts to use FU when none available (Count)
system.cpu.statFuBusy::SimdShiftAcc                 0      0.00%     63.34% # attempts to use FU when none available (Count)
system.cpu.statFuBusy::SimdDiv                      0      0.00%     63.34% # attempts to use FU when none available (Count)
system.cpu.statFuBusy::SimdSqrt                     0      0.00%     63.34% # attempts to use FU when none available (Count)
system.cpu.statFuBusy::SimdFloatAdd                 0      0.00%     63.34% # attempts to use FU when none available (Count)
system.cpu.statFuBusy::SimdFloatAlu                 0      0.00%     63.34% # attempts to use FU when none available (Count)
system.cpu.statFuBusy::SimdFloatCmp                 0      0.00%     63.34% # attempts to use FU when none available (Count)
system.cpu.statFuBusy::SimdFloatCvt                 0      0.00%     63.34% # attempts to use FU when none available (Count)
system.cpu.statFuBusy::SimdFloatDiv                 0      0.00%     63.34% # attempts to use FU when none available (Count)
system.cpu.statFuBusy::SimdFloatMisc                0      0.00%     63.34% # attempts to use FU when none available (Count)
system.cpu.statFuBusy::SimdFloatMult                0      0.00%     63.34% # attempts to use FU when none available (Count)
system.cpu.statFuBusy::SimdFloatMultAcc             0      0.00%     63.34% # attempts to use FU when none available (Count)
system.cpu.statFuBusy::SimdFloatSqrt                0      0.00%     63.34% # attempts to use FU when none available (Count)
system.cpu.statFuBusy::SimdReduceAdd                0      0.00%     63.34% # attempts to use FU when none available (Count)
system.cpu.statFuBusy::SimdReduceAlu                0      0.00%     63.34% # attempts to use FU when none available (Count)
system.cpu.statFuBusy::SimdReduceCmp                0      0.00%     63.34% # attempts to use FU when none available (Count)
system.cpu.statFuBusy::SimdFloatReduceAdd            0      0.00%     63.34% # attempts to use FU when none available (Count)
system.cpu.statFuBusy::SimdFloatReduceCmp            0      0.00%     63.34% # attempts to use FU when none available (Count)
system.cpu.statFuBusy::SimdAes                      0      0.00%     63.34% # attempts to use FU when none available (Count)
system.cpu.statFuBusy::SimdAesMix                   0      0.00%     63.34% # attempts to use FU when none available (Count)
system.cpu.statFuBusy::SimdSha1Hash                 0      0.00%     63.34% # attempts to use FU when none available (Count)
system.cpu.statFuBusy::SimdSha1Hash2                0      0.00%     63.34% # attempts to use FU when none available (Count)
system.cpu.statFuBusy::SimdSha256Hash               0      0.00%     63.34% # attempts to use FU when none available (Count)
system.cpu.statFuBusy::SimdSha256Hash2              0      0.00%     63.34% # attempts to use FU when none available (Count)
system.cpu.statFuBusy::SimdShaSigma2                0      0.00%     63.34% # attempts to use FU when none available (Count)
system.cpu.statFuBusy::SimdShaSigma3                0      0.00%     63.34% # attempts to use FU when none available (Count)
system.cpu.statFuBusy::SimdPredAlu                  0      0.00%     63.34% # attempts to use FU when none available (Count)
system.cpu.statFuBusy::MemRead                  94000     20.72%     84.06% # attempts to use FU when none available (Count)
system.cpu.statFuBusy::MemWrite                 72237     15.92%     99.99% # attempts to use FU when none available (Count)
system.cpu.statFuBusy::FloatMemRead                56      0.01%    100.00% # attempts to use FU when none available (Count)
system.cpu.statFuBusy::FloatMemWrite                6      0.00%    100.00% # attempts to use FU when none available (Count)
system.cpu.statFuBusy::IprAccess                    0      0.00%    100.00% # attempts to use FU when none available (Count)
system.cpu.statFuBusy::InstPrefetch                 0      0.00%    100.00% # attempts to use FU when none available (Count)
system.cpu.statIssuedInstType_0::No_OpClass        39075      0.18%      0.18% # Number of instructions issued per FU type, per thread (Count)
system.cpu.statIssuedInstType_0::IntAlu      15835699     72.68%     72.86% # Number of instructions issued per FU type, per thread (Count)
system.cpu.statIssuedInstType_0::IntMult        15839      0.07%     72.93% # Number of instructions issued per FU type, per thread (Count)
system.cpu.statIssuedInstType_0::IntDiv        183052      0.84%     73.77% # Number of instructions issued per FU type, per thread (Count)
system.cpu.statIssuedInstType_0::FloatAdd           57      0.00%     73.77% # Number of instructions issued per FU type, per thread (Count)
system.cpu.statIssuedInstType_0::FloatCmp            6      0.00%     73.77% # Number of instructions issued per FU type, per thread (Count)
system.cpu.statIssuedInstType_0::FloatCvt            0      0.00%     73.77% # Number of instructions issued per FU type, per thread (Count)
system.cpu.statIssuedInstType_0::FloatMult           47      0.00%     73.77% # Number of instructions issued per FU type, per thread (Count)
system.cpu.statIssuedInstType_0::FloatMultAcc            0      0.00%     73.77% # Number of instructions issued per FU type, per thread (Count)
system.cpu.statIssuedInstType_0::FloatDiv           12      0.00%     73.77% # Number of instructions issued per FU type, per thread (Count)
system.cpu.statIssuedInstType_0::FloatMisc            0      0.00%     73.77% # Number of instructions issued per FU type, per thread (Count)
system.cpu.statIssuedInstType_0::FloatSqrt            0      0.00%     73.77% # Number of instructions issued per FU type, per thread (Count)
system.cpu.statIssuedInstType_0::SimdAdd            0      0.00%     73.77% # Number of instructions issued per FU type, per thread (Count)
system.cpu.statIssuedInstType_0::SimdAddAcc            0      0.00%     73.77% # Number of instructions issued per FU type, per thread (Count)
system.cpu.statIssuedInstType_0::SimdAlu            0      0.00%     73.77% # Number of instructions issued per FU type, per thread (Count)
system.cpu.statIssuedInstType_0::SimdCmp            0      0.00%     73.77% # Number of instructions issued per FU type, per thread (Count)
system.cpu.statIssuedInstType_0::SimdCvt            0      0.00%     73.77% # Number of instructions issued per FU type, per thread (Count)
system.cpu.statIssuedInstType_0::SimdMisc            0      0.00%     73.77% # Number of instructions issued per FU type, per thread (Count)
system.cpu.statIssuedInstType_0::SimdMult            0      0.00%     73.77% # Number of instructions issued per FU type, per thread (Count)
system.cpu.statIssuedInstType_0::SimdMultAcc            0      0.00%     73.77% # Number of instructions issued per FU type, per thread (Count)
system.cpu.statIssuedInstType_0::SimdShift            0      0.00%     73.77% # Number of instructions issued per FU type, per thread (Count)
system.cpu.statIssuedInstType_0::SimdShiftAcc            0      0.00%     73.77% # Number of instructions issued per FU type, per thread (Count)
system.cpu.statIssuedInstType_0::SimdDiv            0      0.00%     73.77% # Number of instructions issued per FU type, per thread (Count)
system.cpu.statIssuedInstType_0::SimdSqrt            0      0.00%     73.77% # Number of instructions issued per FU type, per thread (Count)
system.cpu.statIssuedInstType_0::SimdFloatAdd            0      0.00%     73.77% # Number of instructions issued per FU type, per thread (Count)
system.cpu.statIssuedInstType_0::SimdFloatAlu            0      0.00%     73.77% # Number of instructions issued per FU type, per thread (Count)
system.cpu.statIssuedInstType_0::SimdFloatCmp            0      0.00%     73.77% # Number of instructions issued per FU type, per thread (Count)
system.cpu.statIssuedInstType_0::SimdFloatCvt            0      0.00%     73.77% # Number of instructions issued per FU type, per thread (Count)
system.cpu.statIssuedInstType_0::SimdFloatDiv            0      0.00%     73.77% # Number of instructions issued per FU type, per thread (Count)
system.cpu.statIssuedInstType_0::SimdFloatMisc            0      0.00%     73.77% # Number of instructions issued per FU type, per thread (Count)
system.cpu.statIssuedInstType_0::SimdFloatMult            0      0.00%     73.77% # Number of instructions issued per FU type, per thread (Count)
system.cpu.statIssuedInstType_0::SimdFloatMultAcc            0      0.00%     73.77% # Number of instructions issued per FU type, per thread (Count)
system.cpu.statIssuedInstType_0::SimdFloatSqrt            0      0.00%     73.77% # Number of instructions issued per FU type, per thread (Count)
system.cpu.statIssuedInstType_0::SimdReduceAdd            0      0.00%     73.77% # Number of instructions issued per FU type, per thread (Count)
system.cpu.statIssuedInstType_0::SimdReduceAlu            0      0.00%     73.77% # Number of instructions issued per FU type, per thread (Count)
system.cpu.statIssuedInstType_0::SimdReduceCmp            0      0.00%     73.77% # Number of instructions issued per FU type, per thread (Count)
system.cpu.statIssuedInstType_0::SimdFloatReduceAdd            0      0.00%     73.77% # Number of instructions issued per FU type, per thread (Count)
system.cpu.statIssuedInstType_0::SimdFloatReduceCmp            0      0.00%     73.77% # Number of instructions issued per FU type, per thread (Count)
system.cpu.statIssuedInstType_0::SimdAes            0      0.00%     73.77% # Number of instructions issued per FU type, per thread (Count)
system.cpu.statIssuedInstType_0::SimdAesMix            0      0.00%     73.77% # Number of instructions issued per FU type, per thread (Count)
system.cpu.statIssuedInstType_0::SimdSha1Hash            0      0.00%     73.77% # Number of instructions issued per FU type, per thread (Count)
system.cpu.statIssuedInstType_0::SimdSha1Hash2            0      0.00%     73.77% # Number of instructions issued per FU type, per thread (Count)
system.cpu.statIssuedInstType_0::SimdSha256Hash            0      0.00%     73.77% # Number of instructions issued per FU type, per thread (Count)
system.cpu.statIssuedInstType_0::SimdSha256Hash2            0      0.00%     73.77% # Number of instructions issued per FU type, per thread (Count)
system.cpu.statIssuedInstType_0::SimdShaSigma2            0      0.00%     73.77% # Number of instructions issued per FU type, per thread (Count)
system.cpu.statIssuedInstType_0::SimdShaSigma3            0      0.00%     73.77% # Number of instructions issued per FU type, per thread (Count)
system.cpu.statIssuedInstType_0::SimdPredAlu            0      0.00%     73.77% # Number of instructions issued per FU type, per thread (Count)
system.cpu.statIssuedInstType_0::MemRead      3682719     16.90%     90.67% # Number of instructions issued per FU type, per thread (Count)
system.cpu.statIssuedInstType_0::MemWrite      1988978      9.13%     99.80% # Number of instructions issued per FU type, per thread (Count)
system.cpu.statIssuedInstType_0::FloatMemRead        29798      0.14%     99.94% # Number of instructions issued per FU type, per thread (Count)
system.cpu.statIssuedInstType_0::FloatMemWrite        13675      0.06%    100.00% # Number of instructions issued per FU type, per thread (Count)
system.cpu.statIssuedInstType_0::IprAccess            0      0.00%    100.00% # Number of instructions issued per FU type, per thread (Count)
system.cpu.statIssuedInstType_0::InstPrefetch            0      0.00%    100.00% # Number of instructions issued per FU type, per thread (Count)
system.cpu.statIssuedInstType_0::total       21788957                       # Number of instructions issued per FU type, per thread (Count)
system.cpu.issueRate                         3.179632                       # Inst issue rate ((Count/Cycle))
system.cpu.fuBusy                              453610                       # FU busy when requested (Count)
system.cpu.fuBusyRate                        0.020818                       # FU busy rate (busy events/executed inst) ((Count/Count))
system.cpu.intInstQueueReads                 50703253                       # Number of integer instruction queue reads (Count)
system.cpu.intInstQueueWrites                26732724                       # Number of integer instruction queue writes (Count)
system.cpu.intInstQueueWakeupAccesses        21437928                       # Number of integer instruction queue wakeup accesses (Count)
system.cpu.fpInstQueueReads                    142028                       # Number of floating instruction queue reads (Count)
system.cpu.fpInstQueueWrites                    59119                       # Number of floating instruction queue writes (Count)
system.cpu.fpInstQueueWakeupAccesses            54832                       # Number of floating instruction queue wakeup accesses (Count)
system.cpu.vecInstQueueReads                        0                       # Number of vector instruction queue reads (Count)
system.cpu.vecInstQueueWrites                       0                       # Number of vector instruction queue writes (Count)
system.cpu.vecInstQueueWakeupAccesses               0                       # Number of vector instruction queue wakeup accesses (Count)
system.cpu.intAluAccesses                    22132448                       # Number of integer alu accesses (Count)
system.cpu.fpAluAccesses                        71044                       # Number of floating point alu accesses (Count)
system.cpu.vecAluAccesses                           0                       # Number of vector alu accesses (Count)
system.cpu.idleCycles                               0                       # Number of cycles IEW is idle (Cycle)
system.cpu.squashCycles                         70072                       # Number of cycles IEW is squashing (Cycle)
system.cpu.blockCycles                         455805                       # Number of cycles IEW is blocking (Cycle)
system.cpu.unblockCycles                         3537                       # Number of cycles IEW is unblocking (Cycle)
system.cpu.dispatchedInsts                   23019644                       # Number of instructions dispatched to IQ (Count)
system.cpu.dispSquashedInsts                     3128                       # Number of squashed instructions skipped by dispatch (Count)
system.cpu.dispLoadInsts                      3918634                       # Number of dispatched load instructions (Count)
system.cpu.dispStoreInsts                     2163178                       # Number of dispatched store instructions (Count)
system.cpu.dispNonSpecInsts                     14774                       # Number of dispatched non-speculative instructions (Count)
system.cpu.iqFullEvents                            82                       # Number of times the IQ has become full, causing a stall (Count)
system.cpu.lsqFullEvents                         3362                       # Number of times the LSQ has become full, causing a stall (Count)
system.cpu.memOrderViolationEvents               2204                       # Number of memory order violations (Count)
system.cpu.predictedTakenIncorrect              40025                       # Number of branches that were predicted taken incorrectly (Count)
system.cpu.predictedNotTakenIncorrect           32346                       # Number of branches that were predicted not taken incorrectly (Count)
system.cpu.branchMispredicts                    72371                       # Number of branch mispredicts detected at execute (Count)
system.cpu.numInsts                          21591795                       # Number of executed instructions (Count)
system.cpu.numLoadInsts                       3640491                       # Number of load instructions executed (Count)
system.cpu.numSquashedInsts                    197159                       # Number of squashed instructions skipped in execute (Count)
system.cpu.numSwp                                   0                       # Number of swp insts executed (Count)
system.cpu.numNop                                   0                       # Number of nop insts executed (Count)
system.cpu.numRefs                            5624407                       # Number of memory reference insts executed (Count)
system.cpu.numBranches                        2312920                       # Number of branches executed (Count)
system.cpu.numStoreInsts                      1983916                       # Number of stores executed (Count)
system.cpu.numRate                           3.150860                       # Inst execution rate ((Count/Cycle))
system.cpu.instsToCommit                     21532795                       # Cumulative count of insts sent to commit (Count)
system.cpu.writebackCount                    21492760                       # Cumulative count of insts written-back (Count)
system.cpu.producerInst                      16081127                       # Number of instructions producing a value (Count)
system.cpu.consumerInst                      26696578                       # Number of instructions consuming a value (Count)
system.cpu.wbRate                            3.136408                       # Insts written-back per cycle ((Count/Cycle))
system.cpu.wbFanout                          0.602367                       # Average fanout of values written-back ((Count/Count))
system.cpu.timesIdled                             502                       # Number of times that the entire CPU went into an idle state and unscheduled itself (Count)
system.cpu.idleCycles                           54849                       # Total number of cycles that the CPU has spent unscheduled due to idling (Cycle)
system.cpu.committedInsts                    10000000                       # Number of Instructions Simulated (Count)
system.cpu.committedOps                      19249505                       # Number of Ops (including micro ops) Simulated (Count)
system.cpu.cpi                               0.685267                       # CPI: Cycles Per Instruction ((Cycle/Count))
system.cpu.totalCpi                          0.685267                       # CPI: Total CPI of All Threads ((Cycle/Count))
system.cpu.ipc                               1.459286                       # IPC: Instructions Per Cycle ((Count/Cycle))
system.cpu.totalIpc                          1.459286                       # IPC: Total IPC of All Threads ((Count/Cycle))
system.cpu.intRegfileReads                   32995605                       # Number of integer regfile reads (Count)
system.cpu.intRegfileWrites                  17479655                       # Number of integer regfile writes (Count)
system.cpu.fpRegfileReads                       68630                       # Number of floating regfile reads (Count)
system.cpu.fpRegfileWrites                      41151                       # Number of floating regfile writes (Count)
system.cpu.ccRegfileReads                    12344856                       # number of cc regfile reads (Count)
system.cpu.ccRegfileWrites                    7086411                       # number of cc regfile writes (Count)
system.cpu.miscRegfileReads                  10160566                       # number of misc regfile reads (Count)
system.cpu.miscRegfileWrites                    27369                       # number of misc regfile writes (Count)
system.cpu.MemDepUnit__0.insertedLoads        3918634                       # Number of loads inserted to the mem dependence unit. (Count)
system.cpu.MemDepUnit__0.insertedStores       2163178                       # Number of stores inserted to the mem dependence unit. (Count)
system.cpu.MemDepUnit__0.conflictingLoads      1137085                       # Number of conflicting loads. (Count)
system.cpu.MemDepUnit__0.conflictingStores       499836                       # Number of conflicting stores. (Count)
system.cpu.MemDepUnit__1.insertedLoads              0                       # Number of loads inserted to the mem dependence unit. (Count)
system.cpu.MemDepUnit__1.insertedStores             0                       # Number of stores inserted to the mem dependence unit. (Count)
system.cpu.MemDepUnit__1.conflictingLoads            0                       # Number of conflicting loads. (Count)
system.cpu.MemDepUnit__1.conflictingStores            0                       # Number of conflicting stores. (Count)
system.cpu.MemDepUnit__2.insertedLoads              0                       # Number of loads inserted to the mem dependence unit. (Count)
system.cpu.MemDepUnit__2.insertedStores             0                       # Number of stores inserted to the mem dependence unit. (Count)
system.cpu.MemDepUnit__2.conflictingLoads            0                       # Number of conflicting loads. (Count)
system.cpu.MemDepUnit__2.conflictingStores            0                       # Number of conflicting stores. (Count)
system.cpu.MemDepUnit__3.insertedLoads              0                       # Number of loads inserted to the mem dependence unit. (Count)
system.cpu.MemDepUnit__3.insertedStores             0                       # Number of stores inserted to the mem dependence unit. (Count)
system.cpu.MemDepUnit__3.conflictingLoads            0                       # Number of conflicting loads. (Count)
system.cpu.MemDepUnit__3.conflictingStores            0                       # Number of conflicting stores. (Count)
system.cpu.branchPred.lookups                 2709407                       # Number of BP lookups (Count)
system.cpu.branchPred.condPredicted           2213599                       # Number of conditional branches predicted (Count)
system.cpu.branchPred.condIncorrect             68824                       # Number of conditional branches incorrect (Count)
system.cpu.branchPred.BTBLookups              1214868                       # Number of BTB lookups (Count)
system.cpu.branchPred.BTBHits                 1213820                       # Number of BTB hits (Count)
system.cpu.branchPred.BTBHitRatio            0.999137                       # BTB Hit Ratio (Ratio)
system.cpu.branchPred.RASUsed                  104066                       # Number of times the RAS was used to get a target. (Count)
system.cpu.branchPred.RASIncorrect                 34                       # Number of incorrect RAS predictions. (Count)
system.cpu.branchPred.indirectLookups           14849                       # Number of indirect predictor lookups. (Count)
system.cpu.branchPred.indirectHits              14405                       # Number of indirect target hits. (Count)
system.cpu.branchPred.indirectMisses              444                       # Number of indirect misses. (Count)
system.cpu.branchPred.indirectMispredicted          128                       # Number of mispredicted indirect branches. (Count)
system.cpu.commit.commitSquashedInsts         3767468                       # The number of squashed insts skipped by commit (Count)
system.cpu.commit.commitNonSpecStalls           13696                       # The number of times commit has been forced to stall to communicate backwards (Count)
system.cpu.commit.branchMispredicts             68345                       # The number of times a branch was mispredicted (Count)
system.cpu.commit.numCommittedDist::samples      6283808                       # Number of insts commited each cycle (Count)
system.cpu.commit.numCommittedDist::mean     3.063350                       # Number of insts commited each cycle (Count)
system.cpu.commit.numCommittedDist::stdev     2.997850                       # Number of insts commited each cycle (Count)
system.cpu.commit.numCommittedDist::underflows            0      0.00%      0.00% # Number of insts commited each cycle (Count)
system.cpu.commit.numCommittedDist::0         1615638     25.71%     25.71% # Number of insts commited each cycle (Count)
system.cpu.commit.numCommittedDist::1         1037273     16.51%     42.22% # Number of insts commited each cycle (Count)
system.cpu.commit.numCommittedDist::2          835438     13.30%     55.51% # Number of insts commited each cycle (Count)
system.cpu.commit.numCommittedDist::3          718068     11.43%     66.94% # Number of insts commited each cycle (Count)
system.cpu.commit.numCommittedDist::4          315624      5.02%     71.96% # Number of insts commited each cycle (Count)
system.cpu.commit.numCommittedDist::5          155932      2.48%     74.44% # Number of insts commited each cycle (Count)
system.cpu.commit.numCommittedDist::6          201560      3.21%     77.65% # Number of insts commited each cycle (Count)
system.cpu.commit.numCommittedDist::7           98564      1.57%     79.22% # Number of insts commited each cycle (Count)
system.cpu.commit.numCommittedDist::8         1305711     20.78%    100.00% # Number of insts commited each cycle (Count)
system.cpu.commit.numCommittedDist::overflows            0      0.00%    100.00% # Number of insts commited each cycle (Count)
system.cpu.commit.numCommittedDist::min_value            0                       # Number of insts commited each cycle (Count)
system.cpu.commit.numCommittedDist::max_value            8                       # Number of insts commited each cycle (Count)
system.cpu.commit.numCommittedDist::total      6283808                       # Number of insts commited each cycle (Count)
system.cpu.commit.instsCommitted             10000000                       # Number of instructions committed (Count)
system.cpu.commit.opsCommitted               19249505                       # Number of ops (including micro ops) committed (Count)
system.cpu.commit.memRefs                     5022361                       # Number of memory references committed (Count)
system.cpu.commit.loads                       3168853                       # Number of loads committed (Count)
system.cpu.commit.amos                              0                       # Number of atomic instructions committed (Count)
system.cpu.commit.membars                           0                       # Number of memory barriers committed (Count)
system.cpu.commit.branches                    2134911                       # Number of branches committed (Count)
system.cpu.commit.vectorInstructions                0                       # Number of committed Vector instructions. (Count)
system.cpu.commit.floating                      54795                       # Number of committed floating point instructions. (Count)
system.cpu.commit.integer                    19060507                       # Number of committed integer instructions. (Count)
system.cpu.commit.functionCalls                 93946                       # Number of function calls committed. (Count)
system.cpu.commit.committedInstType_0::No_OpClass        34961      0.18%      0.18% # Class of committed instruction (Count)
system.cpu.commit.committedInstType_0::IntAlu     13998963     72.72%     72.91% # Class of committed instruction (Count)
system.cpu.commit.committedInstType_0::IntMult        15837      0.08%     72.99% # Class of committed instruction (Count)
system.cpu.commit.committedInstType_0::IntDiv       177276      0.92%     73.91% # Class of committed instruction (Count)
system.cpu.commit.committedInstType_0::FloatAdd           42      0.00%     73.91% # Class of committed instruction (Count)
system.cpu.commit.committedInstType_0::FloatCmp            6      0.00%     73.91% # Class of committed instruction (Count)
system.cpu.commit.committedInstType_0::FloatCvt            0      0.00%     73.91% # Class of committed instruction (Count)
system.cpu.commit.committedInstType_0::FloatMult           47      0.00%     73.91% # Class of committed instruction (Count)
system.cpu.commit.committedInstType_0::FloatMultAcc            0      0.00%     73.91% # Class of committed instruction (Count)
system.cpu.commit.committedInstType_0::FloatDiv           12      0.00%     73.91% # Class of committed instruction (Count)
system.cpu.commit.committedInstType_0::FloatMisc            0      0.00%     73.91% # Class of committed instruction (Count)
system.cpu.commit.committedInstType_0::FloatSqrt            0      0.00%     73.91% # Class of committed instruction (Count)
system.cpu.commit.committedInstType_0::SimdAdd            0      0.00%     73.91% # Class of committed instruction (Count)
system.cpu.commit.committedInstType_0::SimdAddAcc            0      0.00%     73.91% # Class of committed instruction (Count)
system.cpu.commit.committedInstType_0::SimdAlu            0      0.00%     73.91% # Class of committed instruction (Count)
system.cpu.commit.committedInstType_0::SimdCmp            0      0.00%     73.91% # Class of committed instruction (Count)
system.cpu.commit.committedInstType_0::SimdCvt            0      0.00%     73.91% # Class of committed instruction (Count)
system.cpu.commit.committedInstType_0::SimdMisc            0      0.00%     73.91% # Class of committed instruction (Count)
system.cpu.commit.committedInstType_0::SimdMult            0      0.00%     73.91% # Class of committed instruction (Count)
system.cpu.commit.committedInstType_0::SimdMultAcc            0      0.00%     73.91% # Class of committed instruction (Count)
system.cpu.commit.committedInstType_0::SimdShift            0      0.00%     73.91% # Class of committed instruction (Count)
system.cpu.commit.committedInstType_0::SimdShiftAcc            0      0.00%     73.91% # Class of committed instruction (Count)
system.cpu.commit.committedInstType_0::SimdDiv            0      0.00%     73.91% # Class of committed instruction (Count)
system.cpu.commit.committedInstType_0::SimdSqrt            0      0.00%     73.91% # Class of committed instruction (Count)
system.cpu.commit.committedInstType_0::SimdFloatAdd            0      0.00%     73.91% # Class of committed instruction (Count)
system.cpu.commit.committedInstType_0::SimdFloatAlu            0      0.00%     73.91% # Class of committed instruction (Count)
system.cpu.commit.committedInstType_0::SimdFloatCmp            0      0.00%     73.91% # Class of committed instruction (Count)
system.cpu.commit.committedInstType_0::SimdFloatCvt            0      0.00%     73.91% # Class of committed instruction (Count)
system.cpu.commit.committedInstType_0::SimdFloatDiv            0      0.00%     73.91% # Class of committed instruction (Count)
system.cpu.commit.committedInstType_0::SimdFloatMisc            0      0.00%     73.91% # Class of committed instruction (Count)
system.cpu.commit.committedInstType_0::SimdFloatMult            0      0.00%     73.91% # Class of committed instruction (Count)
system.cpu.commit.committedInstType_0::SimdFloatMultAcc            0      0.00%     73.91% # Class of committed instruction (Count)
system.cpu.commit.committedInstType_0::SimdFloatSqrt            0      0.00%     73.91% # Class of committed instruction (Count)
system.cpu.commit.committedInstType_0::SimdReduceAdd            0      0.00%     73.91% # Class of committed instruction (Count)
system.cpu.commit.committedInstType_0::SimdReduceAlu            0      0.00%     73.91% # Class of committed instruction (Count)
system.cpu.commit.committedInstType_0::SimdReduceCmp            0      0.00%     73.91% # Class of committed instruction (Count)
system.cpu.commit.committedInstType_0::SimdFloatReduceAdd            0      0.00%     73.91% # Class of committed instruction (Count)
system.cpu.commit.committedInstType_0::SimdFloatReduceCmp            0      0.00%     73.91% # Class of committed instruction (Count)
system.cpu.commit.committedInstType_0::SimdAes            0      0.00%     73.91% # Class of committed instruction (Count)
system.cpu.commit.committedInstType_0::SimdAesMix            0      0.00%     73.91% # Class of committed instruction (Count)
system.cpu.commit.committedInstType_0::SimdSha1Hash            0      0.00%     73.91% # Class of committed instruction (Count)
system.cpu.commit.committedInstType_0::SimdSha1Hash2            0      0.00%     73.91% # Class of committed instruction (Count)
system.cpu.commit.committedInstType_0::SimdSha256Hash            0      0.00%     73.91% # Class of committed instruction (Count)
system.cpu.commit.committedInstType_0::SimdSha256Hash2            0      0.00%     73.91% # Class of committed instruction (Count)
system.cpu.commit.committedInstType_0::SimdShaSigma2            0      0.00%     73.91% # Class of committed instruction (Count)
system.cpu.commit.committedInstType_0::SimdShaSigma3            0      0.00%     73.91% # Class of committed instruction (Count)
system.cpu.commit.committedInstType_0::SimdPredAlu            0      0.00%     73.91% # Class of committed instruction (Count)
system.cpu.commit.committedInstType_0::MemRead      3155227     16.39%     90.30% # Class of committed instruction (Count)
system.cpu.commit.committedInstType_0::MemWrite      1839833      9.56%     99.86% # Class of committed instruction (Count)
system.cpu.commit.committedInstType_0::FloatMemRead        13626      0.07%     99.93% # Class of committed instruction (Count)
system.cpu.commit.committedInstType_0::FloatMemWrite        13675      0.07%    100.00% # Class of committed instruction (Count)
system.cpu.commit.committedInstType_0::IprAccess            0      0.00%    100.00% # Class of committed instruction (Count)
system.cpu.commit.committedInstType_0::InstPrefetch            0      0.00%    100.00% # Class of committed instruction (Count)
system.cpu.commit.committedInstType_0::total     19249505                       # Class of committed instruction (Count)
system.cpu.commit.commitEligibleSamples       1305711                       # number cycles where commit BW limit reached (Cycle)
system.cpu.dcache.demandHits::cpu.data        4161088                       # number of demand (read+write) hits (Count)
system.cpu.dcache.demandHits::total           4161088                       # number of demand (read+write) hits (Count)
system.cpu.dcache.overallHits::cpu.data       4161088                       # number of overall hits (Count)
system.cpu.dcache.overallHits::total          4161088                       # number of overall hits (Count)
system.cpu.dcache.demandMisses::cpu.data         2676                       # number of demand (read+write) misses (Count)
system.cpu.dcache.demandMisses::total            2676                       # number of demand (read+write) misses (Count)
system.cpu.dcache.overallMisses::cpu.data         2676                       # number of overall misses (Count)
system.cpu.dcache.overallMisses::total           2676                       # number of overall misses (Count)
system.cpu.dcache.demandMissLatency::cpu.data    201041999                       # number of demand (read+write) miss ticks (Tick)
system.cpu.dcache.demandMissLatency::total    201041999                       # number of demand (read+write) miss ticks (Tick)
system.cpu.dcache.overallMissLatency::cpu.data    201041999                       # number of overall miss ticks (Tick)
system.cpu.dcache.overallMissLatency::total    201041999                       # number of overall miss ticks (Tick)
system.cpu.dcache.demandAccesses::cpu.data      4163764                       # number of demand (read+write) accesses (Count)
system.cpu.dcache.demandAccesses::total       4163764                       # number of demand (read+write) accesses (Count)
system.cpu.dcache.overallAccesses::cpu.data      4163764                       # number of overall (read+write) accesses (Count)
system.cpu.dcache.overallAccesses::total      4163764                       # number of overall (read+write) accesses (Count)
system.cpu.dcache.demandMissRate::cpu.data     0.000643                       # miss rate for demand accesses (Ratio)
system.cpu.dcache.demandMissRate::total      0.000643                       # miss rate for demand accesses (Ratio)
system.cpu.dcache.overallMissRate::cpu.data     0.000643                       # miss rate for overall accesses (Ratio)
system.cpu.dcache.overallMissRate::total     0.000643                       # miss rate for overall accesses (Ratio)
system.cpu.dcache.demandAvgMissLatency::cpu.data 75127.802317                       # average overall miss latency ((Cycle/Count))
system.cpu.dcache.demandAvgMissLatency::total 75127.802317                       # average overall miss latency ((Cycle/Count))
system.cpu.dcache.overallAvgMissLatency::cpu.data 75127.802317                       # average overall miss latency ((Cycle/Count))
system.cpu.dcache.overallAvgMissLatency::total 75127.802317                       # average overall miss latency ((Cycle/Count))
system.cpu.dcache.blockedCycles::no_mshrs          266                       # number of cycles access was blocked (Cycle)
system.cpu.dcache.blockedCycles::no_targets            0                       # number of cycles access was blocked (Cycle)
system.cpu.dcache.blockedCauses::no_mshrs            8                       # number of times access was blocked (Count)
system.cpu.dcache.blockedCauses::no_targets            0                       # number of times access was blocked (Count)
system.cpu.dcache.avgBlocked::no_mshrs      33.250000                       # average number of cycles each access was blocked ((Cycle/Count))
system.cpu.dcache.avgBlocked::no_targets          nan                       # average number of cycles each access was blocked ((Cycle/Count))
system.cpu.dcache.writebacks::writebacks         1497                       # number of writebacks (Count)
system.cpu.dcache.writebacks::total              1497                       # number of writebacks (Count)
system.cpu.dcache.demandMshrHits::cpu.data          451                       # number of demand (read+write) MSHR hits (Count)
system.cpu.dcache.demandMshrHits::total           451                       # number of demand (read+write) MSHR hits (Count)
system.cpu.dcache.overallMshrHits::cpu.data          451                       # number of overall MSHR hits (Count)
system.cpu.dcache.overallMshrHits::total          451                       # number of overall MSHR hits (Count)
system.cpu.dcache.demandMshrMisses::cpu.data         2225                       # number of demand (read+write) MSHR misses (Count)
system.cpu.dcache.demandMshrMisses::total         2225                       # number of demand (read+write) MSHR misses (Count)
system.cpu.dcache.overallMshrMisses::cpu.data         2225                       # number of overall MSHR misses (Count)
system.cpu.dcache.overallMshrMisses::total         2225                       # number of overall MSHR misses (Count)
system.cpu.dcache.demandMshrMissLatency::cpu.data    176213999                       # number of demand (read+write) MSHR miss ticks (Tick)
system.cpu.dcache.demandMshrMissLatency::total    176213999                       # number of demand (read+write) MSHR miss ticks (Tick)
system.cpu.dcache.overallMshrMissLatency::cpu.data    176213999                       # number of overall MSHR miss ticks (Tick)
system.cpu.dcache.overallMshrMissLatency::total    176213999                       # number of overall MSHR miss ticks (Tick)
system.cpu.dcache.demandMshrMissRate::cpu.data     0.000534                       # mshr miss ratio for demand accesses (Ratio)
system.cpu.dcache.demandMshrMissRate::total     0.000534                       # mshr miss ratio for demand accesses (Ratio)
system.cpu.dcache.overallMshrMissRate::cpu.data     0.000534                       # mshr miss ratio for overall accesses (Ratio)
system.cpu.dcache.overallMshrMissRate::total     0.000534                       # mshr miss ratio for overall accesses (Ratio)
system.cpu.dcache.demandAvgMshrMissLatency::cpu.data 79197.302921                       # average overall mshr miss latency ((Cycle/Count))
system.cpu.dcache.demandAvgMshrMissLatency::total 79197.302921                       # average overall mshr miss latency ((Cycle/Count))
system.cpu.dcache.overallAvgMshrMissLatency::cpu.data 79197.302921                       # average overall mshr miss latency ((Cycle/Count))
system.cpu.dcache.overallAvgMshrMissLatency::total 79197.302921                       # average overall mshr miss latency ((Cycle/Count))
system.cpu.dcache.replacements                   1702                       # number of replacements (Count)
system.cpu.dcache.ReadReq.hits::cpu.data      2309414                       # number of ReadReq hits (Count)
system.cpu.dcache.ReadReq.hits::total         2309414                       # number of ReadReq hits (Count)
system.cpu.dcache.ReadReq.misses::cpu.data          835                       # number of ReadReq misses (Count)
system.cpu.dcache.ReadReq.misses::total           835                       # number of ReadReq misses (Count)
system.cpu.dcache.ReadReq.missLatency::cpu.data     45685500                       # number of ReadReq miss ticks (Tick)
system.cpu.dcache.ReadReq.missLatency::total     45685500                       # number of ReadReq miss ticks (Tick)
system.cpu.dcache.ReadReq.accesses::cpu.data      2310249                       # number of ReadReq accesses(hits+misses) (Count)
system.cpu.dcache.ReadReq.accesses::total      2310249                       # number of ReadReq accesses(hits+misses) (Count)
system.cpu.dcache.ReadReq.missRate::cpu.data     0.000361                       # miss rate for ReadReq accesses (Ratio)
system.cpu.dcache.ReadReq.missRate::total     0.000361                       # miss rate for ReadReq accesses (Ratio)
system.cpu.dcache.ReadReq.avgMissLatency::cpu.data 54713.173653                       # average ReadReq miss latency ((Tick/Count))
system.cpu.dcache.ReadReq.avgMissLatency::total 54713.173653                       # average ReadReq miss latency ((Tick/Count))
system.cpu.dcache.ReadReq.mshrHits::cpu.data          448                       # number of ReadReq MSHR hits (Count)
system.cpu.dcache.ReadReq.mshrHits::total          448                       # number of ReadReq MSHR hits (Count)
system.cpu.dcache.ReadReq.mshrMisses::cpu.data          387                       # number of ReadReq MSHR misses (Count)
system.cpu.dcache.ReadReq.mshrMisses::total          387                       # number of ReadReq MSHR misses (Count)
system.cpu.dcache.ReadReq.mshrMissLatency::cpu.data     22827500                       # number of ReadReq MSHR miss ticks (Tick)
system.cpu.dcache.ReadReq.mshrMissLatency::total     22827500                       # number of ReadReq MSHR miss ticks (Tick)
system.cpu.dcache.ReadReq.mshrMissRate::cpu.data     0.000168                       # mshr miss rate for ReadReq accesses (Ratio)
system.cpu.dcache.ReadReq.mshrMissRate::total     0.000168                       # mshr miss rate for ReadReq accesses (Ratio)
system.cpu.dcache.ReadReq.avgMshrMissLatency::cpu.data 58985.788114                       # average ReadReq mshr miss latency ((Tick/Count))
system.cpu.dcache.ReadReq.avgMshrMissLatency::total 58985.788114                       # average ReadReq mshr miss latency ((Tick/Count))
system.cpu.dcache.WriteReq.hits::cpu.data      1851674                       # number of WriteReq hits (Count)
system.cpu.dcache.WriteReq.hits::total        1851674                       # number of WriteReq hits (Count)
system.cpu.dcache.WriteReq.misses::cpu.data         1841                       # number of WriteReq misses (Count)
system.cpu.dcache.WriteReq.misses::total         1841                       # number of WriteReq misses (Count)
system.cpu.dcache.WriteReq.missLatency::cpu.data    155356499                       # number of WriteReq miss ticks (Tick)
system.cpu.dcache.WriteReq.missLatency::total    155356499                       # number of WriteReq miss ticks (Tick)
system.cpu.dcache.WriteReq.accesses::cpu.data      1853515                       # number of WriteReq accesses(hits+misses) (Count)
system.cpu.dcache.WriteReq.accesses::total      1853515                       # number of WriteReq accesses(hits+misses) (Count)
system.cpu.dcache.WriteReq.missRate::cpu.data     0.000993                       # miss rate for WriteReq accesses (Ratio)
system.cpu.dcache.WriteReq.missRate::total     0.000993                       # miss rate for WriteReq accesses (Ratio)
system.cpu.dcache.WriteReq.avgMissLatency::cpu.data 84387.017382                       # average WriteReq miss latency ((Tick/Count))
system.cpu.dcache.WriteReq.avgMissLatency::total 84387.017382                       # average WriteReq miss latency ((Tick/Count))
system.cpu.dcache.WriteReq.mshrHits::cpu.data            3                       # number of WriteReq MSHR hits (Count)
system.cpu.dcache.WriteReq.mshrHits::total            3                       # number of WriteReq MSHR hits (Count)
system.cpu.dcache.WriteReq.mshrMisses::cpu.data         1838                       # number of WriteReq MSHR misses (Count)
system.cpu.dcache.WriteReq.mshrMisses::total         1838                       # number of WriteReq MSHR misses (Count)
system.cpu.dcache.WriteReq.mshrMissLatency::cpu.data    153386499                       # number of WriteReq MSHR miss ticks (Tick)
system.cpu.dcache.WriteReq.mshrMissLatency::total    153386499                       # number of WriteReq MSHR miss ticks (Tick)
system.cpu.dcache.WriteReq.mshrMissRate::cpu.data     0.000992                       # mshr miss rate for WriteReq accesses (Ratio)
system.cpu.dcache.WriteReq.mshrMissRate::total     0.000992                       # mshr miss rate for WriteReq accesses (Ratio)
system.cpu.dcache.WriteReq.avgMshrMissLatency::cpu.data 83452.937432                       # average WriteReq mshr miss latency ((Tick/Count))
system.cpu.dcache.WriteReq.avgMshrMissLatency::total 83452.937432                       # average WriteReq mshr miss latency ((Tick/Count))
system.cpu.dcache.power_state.pwrStateResidencyTicks::UNDEFINED   3426332500                       # Cumulative time (in ticks) in various power states (Tick)
system.cpu.dcache.tags.tagsInUse           485.294247                       # Average ticks per tags in use ((Tick/Count))
system.cpu.dcache.tags.totalRefs              4163316                       # Total number of references to valid blocks. (Count)
system.cpu.dcache.tags.sampledRefs               2214                       # Sample count of references to valid blocks. (Count)
system.cpu.dcache.tags.avgRefs            1880.449864                       # Average number of references to valid blocks. ((Count/Count))
system.cpu.dcache.tags.warmupTick              176500                       # The tick when the warmup percentage was hit. (Tick)
system.cpu.dcache.tags.occupancies::cpu.data   485.294247                       # Average occupied blocks per tick, per requestor ((Count/Tick))
system.cpu.dcache.tags.avgOccs::cpu.data     0.947840                       # Average percentage of cache occupancy ((Ratio/Tick))
system.cpu.dcache.tags.avgOccs::total        0.947840                       # Average percentage of cache occupancy ((Ratio/Tick))
system.cpu.dcache.tags.occupanciesTaskId::1024          512                       # Occupied blocks per task id (Count)
system.cpu.dcache.tags.ageTaskId_1024::0            4                       # Occupied blocks per task id, per block age (Count)
system.cpu.dcache.tags.ageTaskId_1024::1           45                       # Occupied blocks per task id, per block age (Count)
system.cpu.dcache.tags.ageTaskId_1024::2          324                       # Occupied blocks per task id, per block age (Count)
system.cpu.dcache.tags.ageTaskId_1024::3          139                       # Occupied blocks per task id, per block age (Count)
system.cpu.dcache.tags.ratioOccsTaskId::1024            1                       # Ratio of occupied blocks and all blocks, per task id (Ratio)
system.cpu.dcache.tags.tagAccesses           16657270                       # Number of tag accesses (Count)
system.cpu.dcache.tags.dataAccesses          16657270                       # Number of data accesses (Count)
system.cpu.dcache.tags.power_state.pwrStateResidencyTicks::UNDEFINED   3426332500                       # Cumulative time (in ticks) in various power states (Tick)
system.cpu.decode.idleCycles                  1634576                       # Number of cycles decode is idle (Cycle)
system.cpu.decode.blockedCycles               1449022                       # Number of cycles decode is blocked (Cycle)
system.cpu.decode.runCycles                   3426351                       # Number of cycles decode is running (Cycle)
system.cpu.decode.unblockCycles                217797                       # Number of cycles decode is unblocking (Cycle)
system.cpu.decode.squashCycles                  70072                       # Number of cycles decode is squashing (Cycle)
system.cpu.decode.branchResolved              1184797                       # Number of times decode resolved a branch (Count)
system.cpu.decode.branchMispred                   643                       # Number of times decode detected a branch misprediction (Count)
system.cpu.decode.decodedInsts               23850043                       # Number of instructions handled by decode (Count)
system.cpu.decode.squashedInsts                  3362                       # Number of squashed instructions handled by decode (Count)
system.cpu.dtb_walker_cache.blockedCycles::no_mshrs            0                       # number of cycles access was blocked (Cycle)
system.cpu.dtb_walker_cache.blockedCycles::no_targets            0                       # number of cycles access was blocked (Cycle)
system.cpu.dtb_walker_cache.blockedCauses::no_mshrs            0                       # number of times access was blocked (Count)
system.cpu.dtb_walker_cache.blockedCauses::no_targets            0                       # number of times access was blocked (Count)
system.cpu.dtb_walker_cache.avgBlocked::no_mshrs          nan                       # average number of cycles each access was blocked ((Cycle/Count))
system.cpu.dtb_walker_cache.avgBlocked::no_targets          nan                       # average number of cycles each access was blocked ((Cycle/Count))
system.cpu.dtb_walker_cache.replacements            0                       # number of replacements (Count)
system.cpu.dtb_walker_cache.power_state.pwrStateResidencyTicks::UNDEFINED   3426332500                       # Cumulative time (in ticks) in various power states (Tick)
system.cpu.dtb_walker_cache.tags.tagsInUse            0                       # Average ticks per tags in use ((Tick/Count))
system.cpu.dtb_walker_cache.tags.totalRefs            0                       # Total number of references to valid blocks. (Count)
system.cpu.dtb_walker_cache.tags.sampledRefs            0                       # Sample count of references to valid blocks. (Count)
system.cpu.dtb_walker_cache.tags.avgRefs          nan                       # Average number of references to valid blocks. ((Count/Count))
system.cpu.dtb_walker_cache.tags.warmupTick            0                       # The tick when the warmup percentage was hit. (Tick)
system.cpu.dtb_walker_cache.tags.tagAccesses            0                       # Number of tag accesses (Count)
system.cpu.dtb_walker_cache.tags.dataAccesses            0                       # Number of data accesses (Count)
system.cpu.dtb_walker_cache.tags.power_state.pwrStateResidencyTicks::UNDEFINED   3426332500                       # Cumulative time (in ticks) in various power states (Tick)
system.cpu.fetch.icacheStallCycles            1877503                       # Number of cycles fetch is stalled on an Icache miss (Cycle)
system.cpu.fetch.insts                       12750669                       # Number of instructions fetch has processed (Count)
system.cpu.fetch.branches                     2709407                       # Number of branches that fetch encountered (Count)
system.cpu.fetch.predictedBranches            1332291                       # Number of branches that fetch has predicted taken (Count)
system.cpu.fetch.cycles                       4848298                       # Number of cycles fetch has run and was not squashing or blocked (Cycle)
system.cpu.fetch.squashCycles                  141360                       # Number of cycles fetch has spent squashing (Cycle)
system.cpu.fetch.tlbCycles                          2                       # Number of cycles fetch has spent waiting for tlb (Cycle)
system.cpu.fetch.miscStallCycles                  157                       # Number of cycles fetch has spent waiting on interrupts, or bad addresses, or out of MSHRs (Cycle)
system.cpu.fetch.pendingTrapStallCycles          1127                       # Number of stall cycles due to pending traps (Cycle)
system.cpu.fetch.pendingQuiesceStallCycles            1                       # Number of stall cycles due to pending quiesce instructions (Cycle)
system.cpu.fetch.icacheWaitRetryStallCycles           50                       # Number of stall cycles due to full MSHR (Cycle)
system.cpu.fetch.cacheLines                   1809400                       # Number of cache lines fetched (Count)
system.cpu.fetch.icacheSquashes                 21123                       # Number of outstanding Icache misses that were squashed (Count)
system.cpu.fetch.nisnDist::samples            6797818                       # Number of instructions fetched each cycle (Total) (Count)
system.cpu.fetch.nisnDist::mean              3.605967                       # Number of instructions fetched each cycle (Total) (Count)
system.cpu.fetch.nisnDist::stdev             3.534571                       # Number of instructions fetched each cycle (Total) (Count)
system.cpu.fetch.nisnDist::underflows               0      0.00%      0.00% # Number of instructions fetched each cycle (Total) (Count)
system.cpu.fetch.nisnDist::0                  2860101     42.07%     42.07% # Number of instructions fetched each cycle (Total) (Count)
system.cpu.fetch.nisnDist::1                   197642      2.91%     44.98% # Number of instructions fetched each cycle (Total) (Count)
system.cpu.fetch.nisnDist::2                   218307      3.21%     48.19% # Number of instructions fetched each cycle (Total) (Count)
system.cpu.fetch.nisnDist::3                   306212      4.50%     52.70% # Number of instructions fetched each cycle (Total) (Count)
system.cpu.fetch.nisnDist::4                   234651      3.45%     56.15% # Number of instructions fetched each cycle (Total) (Count)
system.cpu.fetch.nisnDist::5                   257785      3.79%     59.94% # Number of instructions fetched each cycle (Total) (Count)
system.cpu.fetch.nisnDist::6                   401511      5.91%     65.85% # Number of instructions fetched each cycle (Total) (Count)
system.cpu.fetch.nisnDist::7                   249649      3.67%     69.52% # Number of instructions fetched each cycle (Total) (Count)
system.cpu.fetch.nisnDist::8                  2071960     30.48%    100.00% # Number of instructions fetched each cycle (Total) (Count)
system.cpu.fetch.nisnDist::overflows                0      0.00%    100.00% # Number of instructions fetched each cycle (Total) (Count)
system.cpu.fetch.nisnDist::min_value                0                       # Number of instructions fetched each cycle (Total) (Count)
system.cpu.fetch.nisnDist::max_value                8                       # Number of instructions fetched each cycle (Total) (Count)
system.cpu.fetch.nisnDist::total              6797818                       # Number of instructions fetched each cycle (Total) (Count)
system.cpu.fetch.branchRate                  0.395380                       # Number of branch fetches per cycle (Ratio)
system.cpu.fetch.rate                        1.860687                       # Number of inst fetches per cycle ((Count/Cycle))
system.cpu.icache.demandHits::cpu.inst        1808033                       # number of demand (read+write) hits (Count)
system.cpu.icache.demandHits::total           1808033                       # number of demand (read+write) hits (Count)
system.cpu.icache.overallHits::cpu.inst       1808033                       # number of overall hits (Count)
system.cpu.icache.overallHits::total          1808033                       # number of overall hits (Count)
system.cpu.icache.demandMisses::cpu.inst         1366                       # number of demand (read+write) misses (Count)
system.cpu.icache.demandMisses::total            1366                       # number of demand (read+write) misses (Count)
system.cpu.icache.overallMisses::cpu.inst         1366                       # number of overall misses (Count)
system.cpu.icache.overallMisses::total           1366                       # number of overall misses (Count)
system.cpu.icache.demandMissLatency::cpu.inst     86953500                       # number of demand (read+write) miss ticks (Tick)
system.cpu.icache.demandMissLatency::total     86953500                       # number of demand (read+write) miss ticks (Tick)
system.cpu.icache.overallMissLatency::cpu.inst     86953500                       # number of overall miss ticks (Tick)
system.cpu.icache.overallMissLatency::total     86953500                       # number of overall miss ticks (Tick)
system.cpu.icache.demandAccesses::cpu.inst      1809399                       # number of demand (read+write) accesses (Count)
system.cpu.icache.demandAccesses::total       1809399                       # number of demand (read+write) accesses (Count)
system.cpu.icache.overallAccesses::cpu.inst      1809399                       # number of overall (read+write) accesses (Count)
system.cpu.icache.overallAccesses::total      1809399                       # number of overall (read+write) accesses (Count)
system.cpu.icache.demandMissRate::cpu.inst     0.000755                       # miss rate for demand accesses (Ratio)
system.cpu.icache.demandMissRate::total      0.000755                       # miss rate for demand accesses (Ratio)
system.cpu.icache.overallMissRate::cpu.inst     0.000755                       # miss rate for overall accesses (Ratio)
system.cpu.icache.overallMissRate::total     0.000755                       # miss rate for overall accesses (Ratio)
system.cpu.icache.demandAvgMissLatency::cpu.inst 63655.563690                       # average overall miss latency ((Cycle/Count))
system.cpu.icache.demandAvgMissLatency::total 63655.563690                       # average overall miss latency ((Cycle/Count))
system.cpu.icache.overallAvgMissLatency::cpu.inst 63655.563690                       # average overall miss latency ((Cycle/Count))
system.cpu.icache.overallAvgMissLatency::total 63655.563690                       # average overall miss latency ((Cycle/Count))
system.cpu.icache.blockedCycles::no_mshrs          232                       # number of cycles access was blocked (Cycle)
system.cpu.icache.blockedCycles::no_targets            0                       # number of cycles access was blocked (Cycle)
system.cpu.icache.blockedCauses::no_mshrs            7                       # number of times access was blocked (Count)
system.cpu.icache.blockedCauses::no_targets            0                       # number of times access was blocked (Count)
system.cpu.icache.avgBlocked::no_mshrs      33.142857                       # average number of cycles each access was blocked ((Cycle/Count))
system.cpu.icache.avgBlocked::no_targets          nan                       # average number of cycles each access was blocked ((Cycle/Count))
system.cpu.icache.writebacks::writebacks          464                       # number of writebacks (Count)
system.cpu.icache.writebacks::total               464                       # number of writebacks (Count)
system.cpu.icache.demandMshrHits::cpu.inst          398                       # number of demand (read+write) MSHR hits (Count)
system.cpu.icache.demandMshrHits::total           398                       # number of demand (read+write) MSHR hits (Count)
system.cpu.icache.overallMshrHits::cpu.inst          398                       # number of overall MSHR hits (Count)
system.cpu.icache.overallMshrHits::total          398                       # number of overall MSHR hits (Count)
system.cpu.icache.demandMshrMisses::cpu.inst          968                       # number of demand (read+write) MSHR misses (Count)
system.cpu.icache.demandMshrMisses::total          968                       # number of demand (read+write) MSHR misses (Count)
system.cpu.icache.overallMshrMisses::cpu.inst          968                       # number of overall MSHR misses (Count)
system.cpu.icache.overallMshrMisses::total          968                       # number of overall MSHR misses (Count)
system.cpu.icache.demandMshrMissLatency::cpu.inst     62670500                       # number of demand (read+write) MSHR miss ticks (Tick)
system.cpu.icache.demandMshrMissLatency::total     62670500                       # number of demand (read+write) MSHR miss ticks (Tick)
system.cpu.icache.overallMshrMissLatency::cpu.inst     62670500                       # number of overall MSHR miss ticks (Tick)
system.cpu.icache.overallMshrMissLatency::total     62670500                       # number of overall MSHR miss ticks (Tick)
system.cpu.icache.demandMshrMissRate::cpu.inst     0.000535                       # mshr miss ratio for demand accesses (Ratio)
system.cpu.icache.demandMshrMissRate::total     0.000535                       # mshr miss ratio for demand accesses (Ratio)
system.cpu.icache.overallMshrMissRate::cpu.inst     0.000535                       # mshr miss ratio for overall accesses (Ratio)
system.cpu.icache.overallMshrMissRate::total     0.000535                       # mshr miss ratio for overall accesses (Ratio)
system.cpu.icache.demandAvgMshrMissLatency::cpu.inst 64742.252066                       # average overall mshr miss latency ((Cycle/Count))
system.cpu.icache.demandAvgMshrMissLatency::total 64742.252066                       # average overall mshr miss latency ((Cycle/Count))
system.cpu.icache.overallAvgMshrMissLatency::cpu.inst 64742.252066                       # average overall mshr miss latency ((Cycle/Count))
system.cpu.icache.overallAvgMshrMissLatency::total 64742.252066                       # average overall mshr miss latency ((Cycle/Count))
system.cpu.icache.replacements                    464                       # number of replacements (Count)
system.cpu.icache.ReadReq.hits::cpu.inst      1808033                       # number of ReadReq hits (Count)
system.cpu.icache.ReadReq.hits::total         1808033                       # number of ReadReq hits (Count)
system.cpu.icache.ReadReq.misses::cpu.inst         1366                       # number of ReadReq misses (Count)
system.cpu.icache.ReadReq.misses::total          1366                       # number of ReadReq misses (Count)
system.cpu.icache.ReadReq.missLatency::cpu.inst     86953500                       # number of ReadReq miss ticks (Tick)
system.cpu.icache.ReadReq.missLatency::total     86953500                       # number of ReadReq miss ticks (Tick)
system.cpu.icache.ReadReq.accesses::cpu.inst      1809399                       # number of ReadReq accesses(hits+misses) (Count)
system.cpu.icache.ReadReq.accesses::total      1809399                       # number of ReadReq accesses(hits+misses) (Count)
system.cpu.icache.ReadReq.missRate::cpu.inst     0.000755                       # miss rate for ReadReq accesses (Ratio)
system.cpu.icache.ReadReq.missRate::total     0.000755                       # miss rate for ReadReq accesses (Ratio)
system.cpu.icache.ReadReq.avgMissLatency::cpu.inst 63655.563690                       # average ReadReq miss latency ((Tick/Count))
system.cpu.icache.ReadReq.avgMissLatency::total 63655.563690                       # average ReadReq miss latency ((Tick/Count))
system.cpu.icache.ReadReq.mshrHits::cpu.inst          398                       # number of ReadReq MSHR hits (Count)
system.cpu.icache.ReadReq.mshrHits::total          398                       # number of ReadReq MSHR hits (Count)
system.cpu.icache.ReadReq.mshrMisses::cpu.inst          968                       # number of ReadReq MSHR misses (Count)
system.cpu.icache.ReadReq.mshrMisses::total          968                       # number of ReadReq MSHR misses (Count)
system.cpu.icache.ReadReq.mshrMissLatency::cpu.inst     62670500                       # number of ReadReq MSHR miss ticks (Tick)
system.cpu.icache.ReadReq.mshrMissLatency::total     62670500                       # number of ReadReq MSHR miss ticks (Tick)
system.cpu.icache.ReadReq.mshrMissRate::cpu.inst     0.000535                       # mshr miss rate for ReadReq accesses (Ratio)
system.cpu.icache.ReadReq.mshrMissRate::total     0.000535                       # mshr miss rate for ReadReq accesses (Ratio)
system.cpu.icache.ReadReq.avgMshrMissLatency::cpu.inst 64742.252066                       # average ReadReq mshr miss latency ((Tick/Count))
system.cpu.icache.ReadReq.avgMshrMissLatency::total 64742.252066                       # average ReadReq mshr miss latency ((Tick/Count))
system.cpu.icache.power_state.pwrStateResidencyTicks::UNDEFINED   3426332500                       # Cumulative time (in ticks) in various power states (Tick)
system.cpu.icache.tags.tagsInUse           489.768879                       # Average ticks per tags in use ((Tick/Count))
system.cpu.icache.tags.totalRefs              1809001                       # Total number of references to valid blocks. (Count)
system.cpu.icache.tags.sampledRefs                968                       # Sample count of references to valid blocks. (Count)
system.cpu.icache.tags.avgRefs            1868.802686                       # Average number of references to valid blocks. ((Count/Count))
system.cpu.icache.tags.warmupTick               87500                       # The tick when the warmup percentage was hit. (Tick)
system.cpu.icache.tags.occupancies::cpu.inst   489.768879                       # Average occupied blocks per tick, per requestor ((Count/Tick))
system.cpu.icache.tags.avgOccs::cpu.inst     0.956580                       # Average percentage of cache occupancy ((Ratio/Tick))
system.cpu.icache.tags.avgOccs::total        0.956580                       # Average percentage of cache occupancy ((Ratio/Tick))
system.cpu.icache.tags.occupanciesTaskId::1024          493                       # Occupied blocks per task id (Count)
system.cpu.icache.tags.ageTaskId_1024::3          493                       # Occupied blocks per task id, per block age (Count)
system.cpu.icache.tags.ratioOccsTaskId::1024     0.962891                       # Ratio of occupied blocks and all blocks, per task id (Ratio)
system.cpu.icache.tags.tagAccesses            7238564                       # Number of tag accesses (Count)
system.cpu.icache.tags.dataAccesses           7238564                       # Number of data accesses (Count)
system.cpu.icache.tags.power_state.pwrStateResidencyTicks::UNDEFINED   3426332500                       # Cumulative time (in ticks) in various power states (Tick)
system.cpu.interrupts.clk_domain.clock           8000                       # Clock period in ticks (Tick)
system.cpu.itb_walker_cache.blockedCycles::no_mshrs            0                       # number of cycles access was blocked (Cycle)
system.cpu.itb_walker_cache.blockedCycles::no_targets            0                       # number of cycles access was blocked (Cycle)
system.cpu.itb_walker_cache.blockedCauses::no_mshrs            0                       # number of times access was blocked (Count)
system.cpu.itb_walker_cache.blockedCauses::no_targets            0                       # number of times access was blocked (Count)
system.cpu.itb_walker_cache.avgBlocked::no_mshrs          nan                       # average number of cycles each access was blocked ((Cycle/Count))
system.cpu.itb_walker_cache.avgBlocked::no_targets          nan                       # average number of cycles each access was blocked ((Cycle/Count))
system.cpu.itb_walker_cache.replacements            0                       # number of replacements (Count)
system.cpu.itb_walker_cache.power_state.pwrStateResidencyTicks::UNDEFINED   3426332500                       # Cumulative time (in ticks) in various power states (Tick)
system.cpu.itb_walker_cache.tags.tagsInUse            0                       # Average ticks per tags in use ((Tick/Count))
system.cpu.itb_walker_cache.tags.totalRefs            0                       # Total number of references to valid blocks. (Count)
system.cpu.itb_walker_cache.tags.sampledRefs            0                       # Sample count of references to valid blocks. (Count)
system.cpu.itb_walker_cache.tags.avgRefs          nan                       # Average number of references to valid blocks. ((Count/Count))
system.cpu.itb_walker_cache.tags.warmupTick            0                       # The tick when the warmup percentage was hit. (Tick)
system.cpu.itb_walker_cache.tags.tagAccesses            0                       # Number of tag accesses (Count)
system.cpu.itb_walker_cache.tags.dataAccesses            0                       # Number of data accesses (Count)
system.cpu.itb_walker_cache.tags.power_state.pwrStateResidencyTicks::UNDEFINED   3426332500                       # Cumulative time (in ticks) in various power states (Tick)
system.cpu.lsq0.forwLoads                     1314151                       # Number of loads that had data forwarded from stores (Count)
system.cpu.lsq0.squashedLoads                  749777                       # Number of loads squashed (Count)
system.cpu.lsq0.ignoredResponses                 1943                       # Number of memory responses ignored because the instruction is squashed (Count)
system.cpu.lsq0.memOrderViolation                2204                       # Number of memory ordering violations (Count)
system.cpu.lsq0.squashedStores                 309664                       # Number of stores squashed (Count)
system.cpu.lsq0.rescheduledLoads                15934                       # Number of loads that were rescheduled (Count)
system.cpu.lsq0.blockedByCache                      7                       # Number of times an access to memory failed due to the cache being blocked (Count)
system.cpu.lsq0.loadToUse::samples            3168853                       # Distribution of cycle latency between the first time a load is issued and its completion (Unspecified)
system.cpu.lsq0.loadToUse::mean              2.868477                       # Distribution of cycle latency between the first time a load is issued and its completion (Unspecified)
system.cpu.lsq0.loadToUse::stdev             2.473968                       # Distribution of cycle latency between the first time a load is issued and its completion (Unspecified)
system.cpu.lsq0.loadToUse::0-9                3161588     99.77%     99.77% # Distribution of cycle latency between the first time a load is issued and its completion (Unspecified)
system.cpu.lsq0.loadToUse::10-19                  198      0.01%     99.78% # Distribution of cycle latency between the first time a load is issued and its completion (Unspecified)
system.cpu.lsq0.loadToUse::20-29                 2004      0.06%     99.84% # Distribution of cycle latency between the first time a load is issued and its completion (Unspecified)
system.cpu.lsq0.loadToUse::30-39                 3017      0.10%     99.94% # Distribution of cycle latency between the first time a load is issued and its completion (Unspecified)
system.cpu.lsq0.loadToUse::40-49                  844      0.03%     99.96% # Distribution of cycle latency between the first time a load is issued and its completion (Unspecified)
system.cpu.lsq0.loadToUse::50-59                  894      0.03%     99.99% # Distribution of cycle latency between the first time a load is issued and its completion (Unspecified)
system.cpu.lsq0.loadToUse::60-69                    5      0.00%     99.99% # Distribution of cycle latency between the first time a load is issued and its completion (Unspecified)
[...]
system.mem_ctrls.dram.perBankWrBursts::13            0                       # Per bank write bursts (Count)
system.mem_ctrls.dram.perBankWrBursts::14            0                       # Per bank write bursts (Count)
system.mem_ctrls.dram.perBankWrBursts::15            0                       # Per bank write bursts (Count)
system.mem_ctrls.dram.totQLat                32990000                       # Total ticks spent queuing (Tick)
system.mem_ctrls.dram.totBusLat              14090000                       # Total ticks spent in databus transfers (Tick)
system.mem_ctrls.dram.totMemAccLat           85827500                       # Total ticks spent from burst creation until serviced by the DRAM (Tick)
system.mem_ctrls.dram.avgQLat                11706.88                       # Average queueing delay per DRAM burst ((Tick/Count))
system.mem_ctrls.dram.avgBusLat               5000.00                       # Average bus latency per DRAM burst ((Tick/Count))
system.mem_ctrls.dram.avgMemAccLat           30456.88                       # Average memory access latency per DRAM burst ((Tick/Count))
system.mem_ctrls.dram.readRowHits                1380                       # Number of row buffer hits during reads (Count)
system.mem_ctrls.dram.writeRowHits                  0                       # Number of row buffer hits during writes (Count)
system.mem_ctrls.dram.readRowHitRate            48.97                       # Row buffer hit rate for reads (Ratio)
system.mem_ctrls.dram.writeRowHitRate             nan                       # Row buffer hit rate for writes (Ratio)
system.mem_ctrls.dram.bytesPerActivate::samples         1438                       # Bytes accessed per row activation (Byte)
system.mem_ctrls.dram.bytesPerActivate::mean   125.418637                       # Bytes accessed per row activation (Byte)
system.mem_ctrls.dram.bytesPerActivate::gmean   101.694412                       # Bytes accessed per row activation (Byte)
system.mem_ctrls.dram.bytesPerActivate::stdev   128.662565                       # Bytes accessed per row activation (Byte)
system.mem_ctrls.dram.bytesPerActivate::0-127          686     47.71%     47.71% # Bytes accessed per row activation (Byte)
system.mem_ctrls.dram.bytesPerActivate::128-255          660     45.90%     93.60% # Bytes accessed per row activation (Byte)
system.mem_ctrls.dram.bytesPerActivate::256-383           36      2.50%     96.11% # Bytes accessed per row activation (Byte)
system.mem_ctrls.dram.bytesPerActivate::384-511           19      1.32%     97.43% # Bytes accessed per row activation (Byte)
system.mem_ctrls.dram.bytesPerActivate::512-639           11      0.76%     98.19% # Bytes accessed per row activation (Byte)
system.mem_ctrls.dram.bytesPerActivate::640-767            5      0.35%     98.54% # Bytes accessed per row activation (Byte)
system.mem_ctrls.dram.bytesPerActivate::768-895            5      0.35%     98.89% # Bytes accessed per row activation (Byte)
system.mem_ctrls.dram.bytesPerActivate::896-1023            2      0.14%     99.03% # Bytes accessed per row activation (Byte)
system.mem_ctrls.dram.bytesPerActivate::1024-1151           14      0.97%    100.00% # Bytes accessed per row activation (Byte)
system.mem_ctrls.dram.bytesPerActivate::total         1438                       # Bytes accessed per row activation (Byte)
system.mem_ctrls.dram.bytesRead                180352                       # Total number of bytes read from DRAM (Byte)
system.mem_ctrls.dram.bytesWritten                  0                       # Total number of bytes written to DRAM (Byte)
system.mem_ctrls.dram.avgRdBW               52.637040                       # Average DRAM read bandwidth in MiBytes/s ((Byte/Second))
system.mem_ctrls.dram.avgWrBW                       0                       # Average DRAM write bandwidth in MiBytes/s ((Byte/Second))
system.mem_ctrls.dram.peakBW                 12800.00                       # Theoretical peak bandwidth in MiByte/s ((Byte/Second))
system.mem_ctrls.dram.busUtil                    0.41                       # Data bus utilization in percentage (Ratio)
system.mem_ctrls.dram.busUtilRead                0.41                       # Data bus utilization in percentage for reads (Ratio)
system.mem_ctrls.dram.busUtilWrite               0.00                       # Data bus utilization in percentage for writes (Ratio)
system.mem_ctrls.dram.pageHitRate               48.97                       # Row buffer hit rate, read and write combined (Ratio)
system.mem_ctrls.dram.power_state.pwrStateResidencyTicks::UNDEFINED   3426332500                       # Cumulative time (in ticks) in various power states (Tick)
system.mem_ctrls.dram.rank0.actEnergy         4134060                       # Energy for activate commands per rank (pJ) (Joule)
system.mem_ctrls.dram.rank0.preEnergy         2197305                       # Energy for precharge commands per rank (pJ) (Joule)
system.mem_ctrls.dram.rank0.readEnergy        8532300                       # Energy for read commands per rank (pJ) (Joule)
system.mem_ctrls.dram.rank0.writeEnergy             0                       # Energy for write commands per rank (pJ) (Joule)
system.mem_ctrls.dram.rank0.refreshEnergy 270441600.000000                       # Energy for refresh commands per rank (pJ) (Joule)
system.mem_ctrls.dram.rank0.actBackEnergy    728022240                       # Energy for active background per rank (pJ) (Joule)
system.mem_ctrls.dram.rank0.preBackEnergy    702640320                       # Energy for precharge background per rank (pJ) (Joule)
system.mem_ctrls.dram.rank0.actPowerDownEnergy            0                       # Energy for active power-down per rank (pJ) (Joule)
system.mem_ctrls.dram.rank0.prePowerDownEnergy            0                       # Energy for precharge power-down per rank (pJ) (Joule)
system.mem_ctrls.dram.rank0.selfRefreshEnergy            0                       # Energy for self refresh per rank (pJ) (Joule)
system.mem_ctrls.dram.rank0.totalEnergy    1715967825                       # Total energy per rank (pJ) (Joule)
system.mem_ctrls.dram.rank0.averagePower   500.817660                       # Core power per rank (mW) (Watt)
system.mem_ctrls.dram.rank0.totalIdleTime            0                       # Total Idle time Per DRAM Rank (Tick)
system.mem_ctrls.dram.rank0.pwrStateTime::IDLE   1820005000                       # Time in different power states (Tick)
system.mem_ctrls.dram.rank0.pwrStateTime::REF    114400000                       # Time in different power states (Tick)
system.mem_ctrls.dram.rank0.pwrStateTime::SREF            0                       # Time in different power states (Tick)
system.mem_ctrls.dram.rank0.pwrStateTime::PRE_PDN            0                       # Time in different power states (Tick)
system.mem_ctrls.dram.rank0.pwrStateTime::ACT   1491927500                       # Time in different power states (Tick)
system.mem_ctrls.dram.rank0.pwrStateTime::ACT_PDN            0                       # Time in different power states (Tick)
system.mem_ctrls.dram.rank1.actEnergy         6133260                       # Energy for activate commands per rank (pJ) (Joule)
system.mem_ctrls.dram.rank1.preEnergy         3259905                       # Energy for precharge commands per rank (pJ) (Joule)
system.mem_ctrls.dram.rank1.readEnergy       11588220                       # Energy for read commands per rank (pJ) (Joule)
system.mem_ctrls.dram.rank1.writeEnergy             0                       # Energy for write commands per rank (pJ) (Joule)
system.mem_ctrls.dram.rank1.refreshEnergy 270441600.000000                       # Energy for refresh commands per rank (pJ) (Joule)
system.mem_ctrls.dram.rank1.actBackEnergy   1132631610                       # Energy for active background per rank (pJ) (Joule)
system.mem_ctrls.dram.rank1.preBackEnergy    361916640                       # Energy for precharge background per rank (pJ) (Joule)
system.mem_ctrls.dram.rank1.actPowerDownEnergy            0                       # Energy for active power-down per rank (pJ) (Joule)
system.mem_ctrls.dram.rank1.prePowerDownEnergy            0                       # Energy for precharge power-down per rank (pJ) (Joule)
system.mem_ctrls.dram.rank1.selfRefreshEnergy            0                       # Energy for self refresh per rank (pJ) (Joule)
system.mem_ctrls.dram.rank1.totalEnergy    1785971235                       # Total energy per rank (pJ) (Joule)
system.mem_ctrls.dram.rank1.averagePower   521.248663                       # Core power per rank (mW) (Watt)
system.mem_ctrls.dram.rank1.totalIdleTime            0                       # Total Idle time Per DRAM Rank (Tick)
system.mem_ctrls.dram.rank1.pwrStateTime::IDLE    930175250                       # Time in different power states (Tick)
system.mem_ctrls.dram.rank1.pwrStateTime::REF    114400000                       # Time in different power states (Tick)
system.mem_ctrls.dram.rank1.pwrStateTime::SREF            0                       # Time in different power states (Tick)
system.mem_ctrls.dram.rank1.pwrStateTime::PRE_PDN            0                       # Time in different power states (Tick)
system.mem_ctrls.dram.rank1.pwrStateTime::ACT   2381757250                       # Time in different power states (Tick)
system.mem_ctrls.dram.rank1.pwrStateTime::ACT_PDN            0                       # Time in different power states (Tick)
system.mem_ctrls.power_state.pwrStateResidencyTicks::UNDEFINED   3426332500                       # Cumulative time (in ticks) in various power states (Tick)
system.membus.transDist::ReadResp                1013                       # Transaction distribution (Count)
system.membus.transDist::CleanEvict                17                       # Transaction distribution (Count)
system.membus.transDist::ReadExReq               1805                       # Transaction distribution (Count)
system.membus.transDist::ReadExResp              1805                       # Transaction distribution (Count)
system.membus.transDist::ReadSharedReq           1013                       # Transaction distribution (Count)
system.membus.pktCount_system.l2.mem_side_port::system.mem_ctrls.port         5653                       # Packet count per connected requestor and responder (Count)
system.membus.pktCount_system.l2.mem_side_port::total         5653                       # Packet count per connected requestor and responder (Count)
system.membus.pktCount::total                    5653                       # Packet count per connected requestor and responder (Count)
system.membus.pktSize_system.l2.mem_side_port::system.mem_ctrls.port       180352                       # Cumulative packet size per connected requestor and responder (Byte)
system.membus.pktSize_system.l2.mem_side_port::total       180352                       # Cumulative packet size per connected requestor and responder (Byte)
system.membus.pktSize::total                   180352                       # Cumulative packet size per connected requestor and responder (Byte)
system.membus.snoops                                0                       # Total snoops (Count)
system.membus.snoopTraffic                          0                       # Total snoop traffic (Byte)
system.membus.snoopFanout::samples               2818                       # Request fanout histogram (Count)
system.membus.snoopFanout::mean                     0                       # Request fanout histogram (Count)
system.membus.snoopFanout::stdev                    0                       # Request fanout histogram (Count)
system.membus.snoopFanout::underflows               0      0.00%      0.00% # Request fanout histogram (Count)
system.membus.snoopFanout::0                     2818    100.00%    100.00% # Request fanout histogram (Count)
system.membus.snoopFanout::1                        0      0.00%    100.00% # Request fanout histogram (Count)
system.membus.snoopFanout::overflows                0      0.00%    100.00% # Request fanout histogram (Count)
system.membus.snoopFanout::min_value                0                       # Request fanout histogram (Count)
system.membus.snoopFanout::max_value                0                       # Request fanout histogram (Count)
system.membus.snoopFanout::total                 2818                       # Request fanout histogram (Count)
system.membus.power_state.pwrStateResidencyTicks::UNDEFINED   3426332500                       # Cumulative time (in ticks) in various power states (Tick)
system.membus.reqLayer2.occupancy             3733500                       # Layer occupancy (ticks) (Tick)
system.membus.reqLayer2.utilization               0.0                       # Layer utilization (Ratio)
system.membus.respLayer1.occupancy           15171750                       # Layer occupancy (ticks) (Tick)
system.membus.respLayer1.utilization              0.0                       # Layer utilization (Ratio)
system.membus.snoop_filter.totRequests           2835                       # Total number of requests made to the snoop filter. (Count)
system.membus.snoop_filter.hitSingleRequests           17                       # Number of requests hitting in the snoop filter with a single holder of the requested data. (Count)
system.membus.snoop_filter.hitMultiRequests            0                       # Number of requests hitting in the snoop filter with multiple (>1) holders of the requested data. (Count)
system.membus.snoop_filter.totSnoops                0                       # Total number of snoops made to the snoop filter. (Count)
system.membus.snoop_filter.hitSingleSnoops            0                       # Number of snoops hitting in the snoop filter with a single holder of the requested data. (Count)
system.membus.snoop_filter.hitMultiSnoops            0                       # Number of snoops hitting in the snoop filter with multiple (>1) holders of the requested data. (Count)
system.tol2bus.transDist::ReadResp               1355                       # Transaction distribution (Count)
system.tol2bus.transDist::WritebackDirty         1497                       # Transaction distribution (Count)
system.tol2bus.transDist::WritebackClean          464                       # Transaction distribution (Count)
system.tol2bus.transDist::CleanEvict              243                       # Transaction distribution (Count)
system.tol2bus.transDist::UpgradeReq               11                       # Transaction distribution (Count)
system.tol2bus.transDist::UpgradeResp              11                       # Transaction distribution (Count)
system.tol2bus.transDist::ReadExReq              1827                       # Transaction distribution (Count)
system.tol2bus.transDist::ReadExResp             1827                       # Transaction distribution (Count)
system.tol2bus.transDist::ReadCleanReq            968                       # Transaction distribution (Count)
system.tol2bus.transDist::ReadSharedReq           387                       # Transaction distribution (Count)
system.tol2bus.pktCount_system.cpu.icache.mem_side_port::system.l2.cpu_side_port         2389                       # Packet count per connected requestor and responder (Count)
system.tol2bus.pktCount_system.cpu.dcache.mem_side_port::system.l2.cpu_side_port         6152                       # Packet count per connected requestor and responder (Count)
system.tol2bus.pktCount::total                   8541                       # Packet count per connected requestor and responder (Count)
system.tol2bus.pktSize_system.cpu.icache.mem_side_port::system.l2.cpu_side_port        90944                       # Cumulative packet size per connected requestor and responder (Byte)
system.tol2bus.pktSize_system.cpu.dcache.mem_side_port::system.l2.cpu_side_port       237504                       # Cumulative packet size per connected requestor and responder (Byte)
system.tol2bus.pktSize::total                  328448                       # Cumulative packet size per connected requestor and responder (Byte)
system.tol2bus.snoops                              49                       # Total snoops (Count)
system.tol2bus.snoopTraffic                       704                       # Total snoop traffic (Byte)
system.tol2bus.snoopFanout::samples              3231                       # Request fanout histogram (Count)
system.tol2bus.snoopFanout::mean             0.014547                       # Request fanout histogram (Count)
system.tol2bus.snoopFanout::stdev            0.119747                       # Request fanout histogram (Count)
system.tol2bus.snoopFanout::underflows              0      0.00%      0.00% # Request fanout histogram (Count)
system.tol2bus.snoopFanout::0                    3184     98.55%     98.55% # Request fanout histogram (Count)
system.tol2bus.snoopFanout::1                      47      1.45%    100.00% # Request fanout histogram (Count)
system.tol2bus.snoopFanout::2                       0      0.00%    100.00% # Request fanout histogram (Count)
system.tol2bus.snoopFanout::3                       0      0.00%    100.00% # Request fanout histogram (Count)
system.tol2bus.snoopFanout::4                       0      0.00%    100.00% # Request fanout histogram (Count)
system.tol2bus.snoopFanout::overflows               0      0.00%    100.00% # Request fanout histogram (Count)
system.tol2bus.snoopFanout::min_value               0                       # Request fanout histogram (Count)
system.tol2bus.snoopFanout::max_value               1                       # Request fanout histogram (Count)
system.tol2bus.snoopFanout::total                3231                       # Request fanout histogram (Count)
system.tol2bus.power_state.pwrStateResidencyTicks::UNDEFINED   3426332500                       # Cumulative time (in ticks) in various power states (Tick)
system.tol2bus.reqLayer0.occupancy            4640500                       # Layer occupancy (ticks) (Tick)
system.tol2bus.reqLayer0.utilization              0.0                       # Layer utilization (Ratio)
system.tol2bus.respLayer0.occupancy           1452000                       # Layer occupancy (ticks) (Tick)
system.tol2bus.respLayer0.utilization             0.0                       # Layer utilization (Ratio)
system.tol2bus.respLayer1.occupancy           3326500                       # Layer occupancy (ticks) (Tick)
system.tol2bus.respLayer1.utilization             0.0                       # Layer utilization (Ratio)
system.tol2bus.snoop_filter.totRequests          5359                       # Total number of requests made to the snoop filter. (Count)
system.tol2bus.snoop_filter.hitSingleRequests         2168                       # Number of requests hitting in the snoop filter with a single holder of the requested data. (Count)
system.tol2bus.snoop_filter.hitMultiRequests           24                       # Number of requests hitting in the snoop filter with multiple (>1) holders of the requested data. (Count)
system.tol2bus.snoop_filter.totSnoops              21                       # Total number of snoops made to the snoop filter. (Count)
system.tol2bus.snoop_filter.hitSingleSnoops           21                       # Number of snoops hitting in the snoop filter with a single holder of the requested data. (Count)
system.tol2bus.snoop_filter.hitMultiSnoops            0                       # Number of snoops hitting in the snoop filter with multiple (>1) holders of the requested data. (Count)
system.voltage_domain.voltage                       1                       # Voltage in Volts (Volt)
system.workload.inst.arm                            0                       # number of arm instructions executed (Count)
system.workload.inst.quiesce                        0                       # number of quiesce instructions executed (Count)

---------- End Simulation Statistics   ----------
