
---------- Begin Simulation Statistics ----------
simSeconds                                   0.090896                       # Number of seconds simulated (Second)
simTicks                                  90896398000                       # Number of ticks simulated (Tick)
finalTick                                 90896398000                       # Number of ticks from beginning of simulation (restored from checkpoints and never reset) (Tick)
simFreq                                  1000000000000                       # The number of ticks per simulated second ((Tick/Second))
hostSeconds                                    345.98                       # Real time elapsed on the host (Second)
hostTickRate                                262721359                       # The number of ticks simulated per host second (ticks/s) ((Tick/Second))
hostMemory                                     645096                       # Number of bytes of host memory used (Byte)
simInsts                                     10000003                       # Number of instructions simulated (Count)
simOps                                       14625141                       # Number of ops (including micro ops) simulated (Count)
hostInstRate                                    28903                       # Simulator instruction rate (inst/s) ((Count/Second))
hostOpRate                                      42272                       # Simulator op (including micro ops) rate (op/s) ((Count/Second))
system.clk_domain.clock                          1000                       # Clock period in ticks (Tick)
system.cpu.numCycles                        181792797                       # Number of cpu cycles simulated (Cycle)
system.cpu.numWorkItemsStarted                      0                       # Number of work items this cpu started (Count)
system.cpu.numWorkItemsCompleted                    0                       # Number of work items this cpu completed (Count)
system.cpu.instsAdded                        14144206                       # Number of instructions added to the IQ (excludes non-spec) (Count)
system.cpu.nonSpecInstsAdded                   782805                       # Number of non-speculative instructions added to the IQ (Count)
system.cpu.instsIssued                       14904546                       # Number of instructions issued (Count)
system.cpu.squashedInstsIssued                    185                       # Number of squashed instructions issued (Count)
system.cpu.squashedInstsExamined               301864                       # Number of squashed instructions iterated over during squash; mainly for profiling (Count)
system.cpu.squashedOperandsExamined            403433                       # Number of squashed operands that are examined and possibly removed from graph (Count)
system.cpu.squashedNonSpecRemoved               15057                       # Number of squashed non-spec instructions that were removed (Count)
system.cpu.numIssuedDist::samples           181753488                       # Number of insts issued each cycle (Count)
system.cpu.numIssuedDist::mean               0.082004                       # Number of insts issued each cycle (Count)
system.cpu.numIssuedDist::stdev              0.622692                       # Number of insts issued each cycle (Count)
system.cpu.numIssuedDist::underflows                0      0.00%      0.00% # Number of insts issued each cycle (Count)
system.cpu.numIssuedDist::0                 177535280     97.68%     97.68% # Number of insts issued each cycle (Count)
system.cpu.numIssuedDist::1                   1150954      0.63%     98.31% # Number of insts issued each cycle (Count)
system.cpu.numIssuedDist::2                    307692      0.17%     98.48% # Number of insts issued each cycle (Count)
system.cpu.numIssuedDist::3                    642488      0.35%     98.84% # Number of insts issued each cycle (Count)
system.cpu.numIssuedDist::4                    917716      0.50%     99.34% # Number of insts issued each cycle (Count)
system.cpu.numIssuedDist::5                    323371      0.18%     99.52% # Number of insts issued each cycle (Count)
system.cpu.numIssuedDist::6                    487144      0.27%     99.79% # Number of insts issued each cycle (Count)
system.cpu.numIssuedDist::7                    110583      0.06%     99.85% # Number of insts issued each cycle (Count)
system.cpu.numIssuedDist::8                    278260      0.15%    100.00% # Number of insts issued each cycle (Count)
system.cpu.numIssuedDist::overflows                 0      0.00%    100.00% # Number of insts issued each cycle (Count)
system.cpu.numIssuedDist::min_value                 0                       # Number of insts issued each cycle (Count)
system.cpu.numIssuedDist::max_value                 8                       # Number of insts issued each cycle (Count)
system.cpu.numIssuedDist::total             181753488                       # Number of insts issued each cycle (Count)
system.cpu.statFuBusy::No_OpClass                   0      0.00%      0.00% # attempts to use FU when none available (Count)
system.cpu.statFuBusy::IntAlu                     853      0.08%      0.08% # attempts to use FU when none available (Count)
system.cpu.statFuBusy::IntMult                      0      0.00%      0.08% # attempts to use FU when none available (Count)
system.cpu.statFuBusy::IntDiv                       0      0.00%      0.08% # attempts to use FU when none available (Count)
system.cpu.statFuBusy::FloatAdd                     0      0.00%      0.08% # attempts to use FU when none available (Count)
system.cpu.statFuBusy::FloatCmp                     0      0.00%      0.08% # attempts to use FU when none available (Count)
system.cpu.statFuBusy::FloatCvt                     0      0.00%      0.08% # attempts to use FU when none available (Count)
system.cpu.statFuBusy::FloatMult                    0      0.00%      0.08% # attempts to use FU when none available (Count)
system.cpu.statFuBusy::FloatMultAcc                 0      0.00%      0.08% # attempts to use FU when none available (Count)
system.cpu.statFuBusy::FloatDiv                     0      0.00%      0.08% # attempts to use FU when none available (Count)
system.cpu.statFuBusy::FloatMisc                    0      0.00%      0.08% # attempts to use FU when none available (Count)
system.cpu.statFuBusy::FloatSqrt                    0      0.00%      0.08% # attempts to use FU when none available (Count)
system.cpu.statFuBusy::SimdAdd                      0      0.00%      0.08% # attempts to use FU when none available (Count)
system.cpu.statFuBusy::SimdAddAcc                   0      0.00%      0.08% # attempts to use FU when none available (Count)
system.cpu.statFuBusy::SimdAlu                      0      0.00%      0.08% # attempts to use FU when none available (Count)
system.cpu.statFuBusy::SimdCmp                      0      0.00%      0.08% # attempts to use FU when none available (Count)
system.cpu.statFuBusy::SimdCvt                      0      0.00%      0.08% # attempts to use FU when none available (Count)
system.cpu.statFuBusy::SimdMisc                     0      0.00%      0.08% # attempts to use FU when none available (Count)
system.cpu.statFuBusy::SimdMult                     0      0.00%      0.08% # attempts to use FU when none available (Count)
system.cpu.statFuBusy::SimdMultAcc                  0      0.00%      0.08% # attempts to use FU when none available (Count)
system.cpu.statFuBusy::SimdShift                    0      0.00%      0.08% # attempts to use FU when none available (Count)
system.cpu.statFuBusy::SimdShiftAcc                 0      0.00%      0.08% # attempts to use FU when none available (Count)
system.cpu.statFuBusy::SimdDiv                      0      0.00%      0.08% # attempts to use FU when none available (Count)
system.cpu.statFuBusy::SimdSqrt                     0      0.00%      0.08% # attempts to use FU when none available (Count)
system.cpu.statFuBusy::SimdFloatAdd                 0      0.00%      0.08% # attempts to use FU when none available (Count)
system.cpu.statFuBusy::SimdFloatAlu                 0      0.00%      0.08% # attempts to use FU when none available (Count)
system.cpu.statFuBusy::SimdFloatCmp                 0      0.00%      0.08% # attempts to use FU when none available (Count)
system.cpu.statFuBusy::SimdFloatCvt                 0      0.00%      0.08% # attempts to use FU when none available (Count)
system.cpu.statFuBusy::SimdFloatDiv                 0      0.00%      0.08% # attempts to use FU when none available (Count)
system.cpu.statFuBusy::SimdFloatMisc                0      0.00%      0.08% # attempts to use FU when none available (Count)
system.cpu.statFuBusy::SimdFloatMult                0      0.00%      0.08% # attempts to use FU when none available (Count)
system.cpu.statFuBusy::SimdFloatMultAcc             0      0.00%      0.08% # attempts to use FU when none available (Count)
system.cpu.statFuBusy::SimdFloatSqrt                0      0.00%      0.08% # attempts to use FU when none available (Count)
system.cpu.statFuBusy::SimdReduceAdd                0      0.00%      0.08% # attempts to use FU when none available (Count)
system.cpu.statFuBusy::SimdReduceAlu                0      0.00%      0.08% # attempts to use FU when none available (Count)
system.cpu.statFuBusy::SimdReduceCmp                0      0.00%      0.08% # attempts to use FU when none available (Count)
system.cpu.statFuBusy::SimdFloatReduceAdd            0      0.00%      0.08% # attempts to use FU when none available (Count)
system.cpu.statFuBusy::SimdFloatReduceCmp            0      0.00%      0.08% # attempts to use FU when none available (Count)
system.cpu.statFuBusy::SimdAes                      0      0.00%      0.08% # attempts to use FU when none available (Count)
system.cpu.statFuBusy::SimdAesMix                   0      0.00%      0.08% # attempts to use FU when none available (Count)
system.cpu.statFuBusy::SimdSha1Hash                 0      0.00%      0.08% # attempts to use FU when none available (Count)
system.cpu.statFuBusy::SimdSha1Hash2                0      0.00%      0.08% # attempts to use FU when none available (Count)
system.cpu.statFuBusy::SimdSha256Hash               0      0.00%      0.08% # attempts to use FU when none available (Count)
system.cpu.statFuBusy::SimdSha256Hash2              0      0.00%      0.08% # attempts to use FU when none available (Count)
system.cpu.statFuBusy::SimdShaSigma2                0      0.00%      0.08% # attempts to use FU when none available (Count)
system.cpu.statFuBusy::SimdShaSigma3                0      0.00%      0.08% # attempts to use FU when none available (Count)
system.cpu.statFuBusy::SimdPredAlu                  0      0.00%      0.08% # attempts to use FU when none available (Count)
system.cpu.statFuBusy::MemRead                    231      0.02%      0.10% # attempts to use FU when none available (Count)
system.cpu.statFuBusy::MemWrite                 17499      1.64%      1.74% # attempts to use FU when none available (Count)
system.cpu.statFuBusy::FloatMemRead                 0      0.00%      1.74% # attempts to use FU when none available (Count)
system.cpu.statFuBusy::FloatMemWrite          1048509     98.26%    100.00% # attempts to use FU when none available (Count)
system.cpu.statFuBusy::IprAccess                    0      0.00%    100.00% # attempts to use FU when none available (Count)
system.cpu.statFuBusy::InstPrefetch                 0      0.00%    100.00% # attempts to use FU when none available (Count)
system.cpu.statIssuedInstType_0::No_OpClass          126      0.00%      0.00% # Number of instructions issued per FU type, per thread (Count)
system.cpu.statIssuedInstType_0::IntAlu       6323949     42.43%     42.43% # Number of instructions issued per FU type, per thread (Count)
system.cpu.statIssuedInstType_0::IntMult           37      0.00%     42.43% # Number of instructions issued per FU type, per thread (Count)
system.cpu.statIssuedInstType_0::IntDiv            78      0.00%     42.43% # Number of instructions issued per FU type, per thread (Count)
system.cpu.statIssuedInstType_0::FloatAdd            0      0.00%     42.43% # Number of instructions issued per FU type, per thread (Count)
system.cpu.statIssuedInstType_0::FloatCmp            0      0.00%     42.43% # Number of instructions issued per FU type, per thread (Count)
system.cpu.statIssuedInstType_0::FloatCvt            0      0.00%     42.43% # Number of instructions issued per FU type, per thread (Count)
system.cpu.statIssuedInstType_0::FloatMult            0      0.00%     42.43% # Number of instructions issued per FU type, per thread (Count)
system.cpu.statIssuedInstType_0::FloatMultAcc            0      0.00%     42.43% # Number of instructions issued per FU type, per thread (Count)
system.cpu.statIssuedInstType_0::FloatDiv            0      0.00%     42.43% # Number of instructions issued per FU type, per thread (Count)
system.cpu.statIssuedInstType_0::FloatMisc            0      0.00%     42.43% # Number of instructions issued per FU type, per thread (Count)
system.cpu.statIssuedInstType_0::FloatSqrt            0      0.00%     42.43% # Number of instructions issued per FU type, per thread (Count)
system.cpu.statIssuedInstType_0::SimdAdd            0      0.00%     42.43% # Number of instructions issued per FU type, per thread (Count)
system.cpu.statIssuedInstType_0::SimdAddAcc            0      0.00%     42.43% # Number of instructions issued per FU type, per thread (Count)
system.cpu.statIssuedInstType_0::SimdAlu            0      0.00%     42.43% # Number of instructions issued per FU type, per thread (Count)
system.cpu.statIssuedInstType_0::SimdCmp            0      0.00%     42.43% # Number of instructions issued per FU type, per thread (Count)
system.cpu.statIssuedInstType_0::SimdCvt            0      0.00%     42.43% # Number of instructions issued per FU type, per thread (Count)
system.cpu.statIssuedInstType_0::SimdMisc            0      0.00%     42.43% # Number of instructions issued per FU type, per thread (Count)
system.cpu.statIssuedInstType_0::SimdMult            0      0.00%     42.43% # Number of instructions issued per FU type, per thread (Count)
system.cpu.statIssuedInstType_0::SimdMultAcc            0      0.00%     42.43% # Number of instructions issued per FU type, per thread (Count)
system.cpu.statIssuedInstType_0::SimdShift            0      0.00%     42.43% # Number of instructions issued per FU type, per thread (Count)
system.cpu.statIssuedInstType_0::SimdShiftAcc            0      0.00%     42.43% # Number of instructions issued per FU type, per thread (Count)
system.cpu.statIssuedInstType_0::SimdDiv            0      0.00%     42.43% # Number of instructions issued per FU type, per thread (Count)
system.cpu.statIssuedInstType_0::SimdSqrt            0      0.00%     42.43% # Number of instructions issued per FU type, per thread (Count)
system.cpu.statIssuedInstType_0::SimdFloatAdd            0      0.00%     42.43% # Number of instructions issued per FU type, per thread (Count)
system.cpu.statIssuedInstType_0::SimdFloatAlu            0      0.00%     42.43% # Number of instructions issued per FU type, per thread (Count)
system.cpu.statIssuedInstType_0::SimdFloatCmp            0      0.00%     42.43% # Number of instructions issued per FU type, per thread (Count)
system.cpu.statIssuedInstType_0::SimdFloatCvt            0      0.00%     42.43% # Number of instructions issued per FU type, per thread (Count)
system.cpu.statIssuedInstType_0::SimdFloatDiv            0      0.00%     42.43% # Number of instructions issued per FU type, per thread (Count)
system.cpu.statIssuedInstType_0::SimdFloatMisc            0      0.00%     42.43% # Number of instructions issued per FU type, per thread (Count)
system.cpu.statIssuedInstType_0::SimdFloatMult            0      0.00%     42.43% # Number of instructions issued per FU type, per thread (Count)
system.cpu.statIssuedInstType_0::SimdFloatMultAcc            0      0.00%     42.43% # Number of instructions issued per FU type, per thread (Count)
system.cpu.statIssuedInstType_0::SimdFloatSqrt            0      0.00%     42.43% # Number of instructions issued per FU type, per thread (Count)
system.cpu.statIssuedInstType_0::SimdReduceAdd            0      0.00%     42.43% # Number of instructions issued per FU type, per thread (Count)
system.cpu.statIssuedInstType_0::SimdReduceAlu            0      0.00%     42.43% # Number of instructions issued per FU type, per thread (Count)
system.cpu.statIssuedInstType_0::SimdReduceCmp            0      0.00%     42.43% # Number of instructions issued per FU type, per thread (Count)
system.cpu.statIssuedInstType_0::SimdFloatReduceAdd            0      0.00%     42.43% # Number of instructions issued per FU type, per thread (Count)
system.cpu.statIssuedInstType_0::SimdFloatReduceCmp            0      0.00%     42.43% # Number of instructions issued per FU type, per thread (Count)
system.cpu.statIssuedInstType_0::SimdAes            0      0.00%     42.43% # Number of instructions issued per FU type, per thread (Count)
system.cpu.statIssuedInstType_0::SimdAesMix            0      0.00%     42.43% # Number of instructions issued per FU type, per thread (Count)
system.cpu.statIssuedInstType_0::SimdSha1Hash            0      0.00%     42.43% # Number of instructions issued per FU type, per thread (Count)
system.cpu.statIssuedInstType_0::SimdSha1Hash2            0      0.00%     42.43% # Number of instructions issued per FU type, per thread (Count)
system.cpu.statIssuedInstType_0::SimdSha256Hash            0      0.00%     42.43% # Number of instructions issued per FU type, per thread (Count)
system.cpu.statIssuedInstType_0::SimdSha256Hash2            0      0.00%     42.43% # Number of instructions issued per FU type, per thread (Count)
system.cpu.statIssuedInstType_0::SimdShaSigma2            0      0.00%     42.43% # Number of instructions issued per FU type, per thread (Count)
system.cpu.statIssuedInstType_0::SimdShaSigma3            0      0.00%     42.43% # Number of instructions issued per FU type, per thread (Count)
system.cpu.statIssuedInstType_0::SimdPredAlu            0      0.00%     42.43% # Number of instructions issued per FU type, per thread (Count)
system.cpu.statIssuedInstType_0::MemRead         7938      0.05%     42.48% # Number of instructions issued per FU type, per thread (Count)
system.cpu.statIssuedInstType_0::MemWrite       400505      2.69%     45.17% # Number of instructions issued per FU type, per thread (Count)
system.cpu.statIssuedInstType_0::FloatMemRead       782738      5.25%     50.42% # Number of instructions issued per FU type, per thread (Count)
system.cpu.statIssuedInstType_0::FloatMemWrite      7389175     49.58%    100.00% # Number of instructions issued per FU type, per thread (Count)
system.cpu.statIssuedInstType_0::IprAccess            0      0.00%    100.00% # Number of instructions issued per FU type, per thread (Count)
system.cpu.statIssuedInstType_0::InstPrefetch            0      0.00%    100.00% # Number of instructions issued per FU type, per thread (Count)
system.cpu.statIssuedInstType_0::total       14904546                       # Number of instructions issued per FU type, per thread (Count)
system.cpu.issueRate                         0.081986                       # Inst issue rate ((Count/Cycle))
system.cpu.fuBusy                             1067092                       # FU busy when requested (Count)
system.cpu.fuBusyRate                        0.071595                       # FU busy rate (busy events/executed inst) ((Count/Count))
system.cpu.intInstQueueReads                192142558                       # Number of integer instruction queue reads (Count)
system.cpu.intInstQueueWrites                 5356338                       # Number of integer instruction queue writes (Count)
system.cpu.intInstQueueWakeupAccesses         5173646                       # Number of integer instruction queue wakeup accesses (Count)
system.cpu.fpInstQueueReads                  20487299                       # Number of floating instruction queue reads (Count)
system.cpu.fpInstQueueWrites                  9872633                       # Number of floating instruction queue writes (Count)
system.cpu.fpInstQueueWakeupAccesses          9635611                       # Number of floating instruction queue wakeup accesses (Count)
system.cpu.vecInstQueueReads                        0                       # Number of vector instruction queue reads (Count)
system.cpu.vecInstQueueWrites                       0                       # Number of vector instruction queue writes (Count)
system.cpu.vecInstQueueWakeupAccesses               0                       # Number of vector instruction queue wakeup accesses (Count)
system.cpu.intAluAccesses                     5203608                       # Number of integer alu accesses (Count)
system.cpu.fpAluAccesses                     10767904                       # Number of floating point alu accesses (Count)
system.cpu.vecAluAccesses                           0                       # Number of vector alu accesses (Count)
system.cpu.idleCycles                               0                       # Number of cycles IEW is idle (Cycle)
system.cpu.squashCycles                         15864                       # Number of cycles IEW is squashing (Cycle)
system.cpu.blockCycles                          24327                       # Number of cycles IEW is blocking (Cycle)
system.cpu.unblockCycles                            8                       # Number of cycles IEW is unblocking (Cycle)
system.cpu.dispatchedInsts                   14927011                       # Number of instructions dispatched to IQ (Count)
system.cpu.dispSquashedInsts                       61                       # Number of squashed instructions skipped by dispatch (Count)
system.cpu.dispLoadInsts                       791608                       # Number of dispatched load instructions (Count)
system.cpu.dispStoreInsts                     7790856                       # Number of dispatched store instructions (Count)
system.cpu.dispNonSpecInsts                    782771                       # Number of dispatched non-speculative instructions (Count)
system.cpu.iqFullEvents                             6                       # Number of times the IQ has become full, causing a stall (Count)
system.cpu.lsqFullEvents                            0                       # Number of times the LSQ has become full, causing a stall (Count)
system.cpu.memOrderViolationEvents                102                       # Number of memory order violations (Count)
system.cpu.predictedTakenIncorrect                122                       # Number of branches that were predicted taken incorrectly (Count)
system.cpu.predictedNotTakenIncorrect             796                       # Number of branches that were predicted not taken incorrectly (Count)
system.cpu.branchMispredicts                      918                       # Number of branch mispredicts detected at execute (Count)
system.cpu.numInsts                          14903059                       # Number of executed instructions (Count)
system.cpu.numLoadInsts                        790355                       # Number of load instructions executed (Count)
system.cpu.numSquashedInsts                      1487                       # Number of squashed instructions skipped in execute (Count)
system.cpu.numSwp                                   0                       # Number of swp insts executed (Count)
system.cpu.numNop                                   0                       # Number of nop insts executed (Count)
system.cpu.numRefs                            8579848                       # Number of memory reference insts executed (Count)
system.cpu.numBranches                         401618                       # Number of branches executed (Count)
system.cpu.numStoreInsts                      7789493                       # Number of stores executed (Count)
system.cpu.numRate                           0.081978                       # Inst execution rate ((Count/Cycle))
system.cpu.instsToCommit                     14902517                       # Cumulative count of insts sent to commit (Count)
system.cpu.writebackCount                    14809257                       # Cumulative count of insts written-back (Count)
system.cpu.producerInst                       3711969                       # Number of instructions producing a value (Count)
system.cpu.consumerInst                       4129195                       # Number of instructions consuming a value (Count)
system.cpu.wbRate                            0.081462                       # Insts written-back per cycle ((Count/Cycle))
system.cpu.wbFanout                          0.898957                       # Average fanout of values written-back ((Count/Count))
system.cpu.timesIdled                             325                       # Number of times that the entire CPU went into an idle state and unscheduled itself (Count)
system.cpu.idleCycles                           39309                       # Total number of cycles that the CPU has spent unscheduled due to idling (Cycle)
system.cpu.committedInsts                    10000003                       # Number of Instructions Simulated (Count)
system.cpu.committedOps                      14625141                       # Number of Ops (including micro ops) Simulated (Count)
system.cpu.cpi                              18.179274                       # CPI: Cycles Per Instruction ((Cycle/Count))
system.cpu.totalCpi                         18.179274                       # CPI: Total CPI of All Threads ((Cycle/Count))
system.cpu.ipc                               0.055008                       # IPC: Instructions Per Cycle ((Count/Cycle))
system.cpu.totalIpc                          0.055008                       # IPC: Total IPC of All Threads ((Count/Cycle))
system.cpu.intRegfileReads                   20771588                       # Number of integer regfile reads (Count)
system.cpu.intRegfileWrites                   3601339                       # Number of integer regfile writes (Count)
system.cpu.fpRegfileReads                    10484139                       # Number of floating regfile reads (Count)
system.cpu.fpRegfileWrites                    2330219                       # Number of floating regfile writes (Count)
system.cpu.ccRegfileReads                     2005255                       # number of cc regfile reads (Count)
system.cpu.ccRegfileWrites                    2392532                       # number of cc regfile writes (Count)
system.cpu.miscRegfileReads                  10918691                       # number of misc regfile reads (Count)
system.cpu.miscRegfileWrites                  1535492                       # number of misc regfile writes (Count)
system.cpu.MemDepUnit__0.insertedLoads         791608                       # Number of loads inserted to the mem dependence unit. (Count)
system.cpu.MemDepUnit__0.insertedStores       7790856                       # Number of stores inserted to the mem dependence unit. (Count)
system.cpu.MemDepUnit__0.conflictingLoads          324                       # Number of conflicting loads. (Count)
system.cpu.MemDepUnit__0.conflictingStores        12516                       # Number of conflicting stores. (Count)
system.cpu.MemDepUnit__1.insertedLoads              0                       # Number of loads inserted to the mem dependence unit. (Count)
system.cpu.MemDepUnit__1.insertedStores             0                       # Number of stores inserted to the mem dependence unit. (Count)
system.cpu.MemDepUnit__1.conflictingLoads            0                       # Number of conflicting loads. (Count)
system.cpu.MemDepUnit__1.conflictingStores            0                       # Number of conflicting stores. (Count)
system.cpu.MemDepUnit__2.insertedLoads              0                       # Number of loads inserted to the mem dependence unit. (Count)
system.cpu.MemDepUnit__2.insertedStores             0                       # Number of stores inserted to the mem dependence unit. (Count)
system.cpu.MemDepUnit__2.conflictingLoads            0                       # Number of conflicting loads. (Count)
system.cpu.MemDepUnit__2.conflictingStores            0                       # Number of conflicting stores. (Count)
system.cpu.MemDepUnit__3.insertedLoads              0                       # Number of loads inserted to the mem dependence unit. (Count)
system.cpu.MemDepUnit__3.insertedStores             0                       # Number of stores inserted to the mem dependence unit. (Count)
system.cpu.MemDepUnit__3.conflictingLoads            0                       # Number of conflicting loads. (Count)
system.cpu.MemDepUnit__3.conflictingStores            0                       # Number of conflicting stores. (Count)
system.cpu.branchPred.lookups                  419729                       # Number of BP lookups (Count)
system.cpu.branchPred.condPredicted            417558                       # Number of conditional branches predicted (Count)
system.cpu.branchPred.condIncorrect               955                       # Number of conditional branches incorrect (Count)
system.cpu.branchPred.BTBLookups               414325                       # Number of BTB lookups (Count)
system.cpu.branchPred.BTBHits                  413383                       # Number of BTB hits (Count)
system.cpu.branchPred.BTBHitRatio            0.997726                       # BTB Hit Ratio (Ratio)
system.cpu.branchPred.RASUsed                     729                       # Number of times the RAS was used to get a target. (Count)
system.cpu.branchPred.RASIncorrect                 21                       # Number of incorrect RAS predictions. (Count)
system.cpu.branchPred.indirectLookups             401                       # Number of indirect predictor lookups. (Count)
system.cpu.branchPred.indirectHits                160                       # Number of indirect target hits. (Count)
system.cpu.branchPred.indirectMisses              241                       # Number of indirect misses. (Count)
system.cpu.branchPred.indirectMispredicted          106                       # Number of mispredicted indirect branches. (Count)
system.cpu.commit.commitSquashedInsts          280633                       # The number of squashed insts skipped by commit (Count)
system.cpu.commit.commitNonSpecStalls          767747                       # The number of times commit has been forced to stall to communicate backwards (Count)
system.cpu.commit.branchMispredicts               771                       # The number of times a branch was mispredicted (Count)
system.cpu.commit.numCommittedDist::samples    181714023                       # Number of insts commited each cycle (Count)
system.cpu.commit.numCommittedDist::mean     0.080484                       # Number of insts commited each cycle (Count)
system.cpu.commit.numCommittedDist::stdev     0.574300                       # Number of insts commited each cycle (Count)
system.cpu.commit.numCommittedDist::underflows            0      0.00%      0.00% # Number of insts commited each cycle (Count)
system.cpu.commit.numCommittedDist::0       176791566     97.29%     97.29% # Number of insts commited each cycle (Count)
system.cpu.commit.numCommittedDist::1         1918363      1.06%     98.35% # Number of insts commited each cycle (Count)
system.cpu.commit.numCommittedDist::2          226942      0.12%     98.47% # Number of insts commited each cycle (Count)
system.cpu.commit.numCommittedDist::3          389409      0.21%     98.69% # Number of insts commited each cycle (Count)
system.cpu.commit.numCommittedDist::4         1724463      0.95%     99.63% # Number of insts commited each cycle (Count)
system.cpu.commit.numCommittedDist::5          201750      0.11%     99.75% # Number of insts commited each cycle (Count)
system.cpu.commit.numCommittedDist::6          159409      0.09%     99.83% # Number of insts commited each cycle (Count)
system.cpu.commit.numCommittedDist::7          195357      0.11%     99.94% # Number of insts commited each cycle (Count)
system.cpu.commit.numCommittedDist::8          106764      0.06%    100.00% # Number of insts commited each cycle (Count)
system.cpu.commit.numCommittedDist::overflows            0      0.00%    100.00% # Number of insts commited each cycle (Count)
system.cpu.commit.numCommittedDist::min_value            0                       # Number of insts commited each cycle (Count)
system.cpu.commit.numCommittedDist::max_value            8                       # Number of insts commited each cycle (Count)
system.cpu.commit.numCommittedDist::total    181714023                       # Number of insts commited each cycle (Count)
system.cpu.commit.instsCommitted             10000003                       # Number of instructions committed (Count)
system.cpu.commit.opsCommitted               14625141                       # Number of ops (including micro ops) committed (Count)
system.cpu.commit.memRefs                     8453949                       # Number of memory references committed (Count)
system.cpu.commit.loads                        773091                       # Number of loads committed (Count)
system.cpu.commit.amos                              0                       # Number of atomic instructions committed (Count)
system.cpu.commit.membars                           0                       # Number of memory barriers committed (Count)
system.cpu.commit.branches                     388602                       # Number of branches committed (Count)
system.cpu.commit.vectorInstructions                0                       # Number of committed Vector instructions. (Count)
system.cpu.commit.floating                    9596714                       # Number of committed floating point instructions. (Count)
system.cpu.commit.integer                    12321672                       # Number of committed integer instructions. (Count)
system.cpu.commit.functionCalls                   351                       # Number of function calls committed. (Count)
system.cpu.commit.committedInstType_0::No_OpClass           11      0.00%      0.00% # Class of committed instruction (Count)
system.cpu.commit.committedInstType_0::IntAlu      6171078     42.19%     42.20% # Class of committed instruction (Count)
system.cpu.commit.committedInstType_0::IntMult           33      0.00%     42.20% # Class of committed instruction (Count)
system.cpu.commit.committedInstType_0::IntDiv           70      0.00%     42.20% # Class of committed instruction (Count)
system.cpu.commit.committedInstType_0::FloatAdd            0      0.00%     42.20% # Class of committed instruction (Count)
system.cpu.commit.committedInstType_0::FloatCmp            0      0.00%     42.20% # Class of committed instruction (Count)
system.cpu.commit.committedInstType_0::FloatCvt            0      0.00%     42.20% # Class of committed instruction (Count)
system.cpu.commit.committedInstType_0::FloatMult            0      0.00%     42.20% # Class of committed instruction (Count)
system.cpu.commit.committedInstType_0::FloatMultAcc            0      0.00%     42.20% # Class of committed instruction (Count)
system.cpu.commit.committedInstType_0::FloatDiv            0      0.00%     42.20% # Class of committed instruction (Count)
system.cpu.commit.committedInstType_0::FloatMisc            0      0.00%     42.20% # Class of committed instruction (Count)
system.cpu.commit.committedInstType_0::FloatSqrt            0      0.00%     42.20% # Class of committed instruction (Count)
system.cpu.commit.committedInstType_0::SimdAdd            0      0.00%     42.20% # Class of committed instruction (Count)
system.cpu.commit.committedInstType_0::SimdAddAcc            0      0.00%     42.20% # Class of committed instruction (Count)
system.cpu.commit.committedInstType_0::SimdAlu            0      0.00%     42.20% # Class of committed instruction (Count)
system.cpu.commit.committedInstType_0::SimdCmp            0      0.00%     42.20% # Class of committed instruction (Count)
system.cpu.commit.committedInstType_0::SimdCvt            0      0.00%     42.20% # Class of committed instruction (Count)
system.cpu.commit.committedInstType_0::SimdMisc            0      0.00%     42.20% # Class of committed instruction (Count)
system.cpu.commit.committedInstType_0::SimdMult            0      0.00%     42.20% # Class of committed instruction (Count)
system.cpu.commit.committedInstType_0::SimdMultAcc            0      0.00%     42.20% # Class of committed instruction (Count)
system.cpu.commit.committedInstType_0::SimdShift            0      0.00%     42.20% # Class of committed instruction (Count)
system.cpu.commit.committedInstType_0::SimdShiftAcc            0      0.00%     42.20% # Class of committed instruction (Count)
system.cpu.commit.committedInstType_0::SimdDiv            0      0.00%     42.20% # Class of committed instruction (Count)
system.cpu.commit.committedInstType_0::SimdSqrt            0      0.00%     42.20% # Class of committed instruction (Count)
system.cpu.commit.committedInstType_0::SimdFloatAdd            0      0.00%     42.20% # Class of committed instruction (Count)
system.cpu.commit.committedInstType_0::SimdFloatAlu            0      0.00%     42.20% # Class of committed instruction (Count)
system.cpu.commit.committedInstType_0::SimdFloatCmp            0      0.00%     42.20% # Class of committed instruction (Count)
system.cpu.commit.committedInstType_0::SimdFloatCvt            0      0.00%     42.20% # Class of committed instruction (Count)
system.cpu.commit.committedInstType_0::SimdFloatDiv            0      0.00%     42.20% # Class of committed instruction (Count)
system.cpu.commit.committedInstType_0::SimdFloatMisc            0      0.00%     42.20% # Class of committed instruction (Count)
system.cpu.commit.committedInstType_0::SimdFloatMult            0      0.00%     42.20% # Class of committed instruction (Count)
system.cpu.commit.committedInstType_0::SimdFloatMultAcc            0      0.00%     42.20% # Class of committed instruction (Count)
system.cpu.commit.committedInstType_0::SimdFloatSqrt            0      0.00%     42.20% # Class of committed instruction (Count)
system.cpu.commit.committedInstType_0::SimdReduceAdd            0      0.00%     42.20% # Class of committed instruction (Count)
system.cpu.commit.committedInstType_0::SimdReduceAlu            0      0.00%     42.20% # Class of committed instruction (Count)
system.cpu.commit.committedInstType_0::SimdReduceCmp            0      0.00%     42.20% # Class of committed instruction (Count)
system.cpu.commit.committedInstType_0::SimdFloatReduceAdd            0      0.00%     42.20% # Class of committed instruction (Count)
system.cpu.commit.committedInstType_0::SimdFloatReduceCmp            0      0.00%     42.20% # Class of committed instruction (Count)
system.cpu.commit.committedInstType_0::SimdAes            0      0.00%     42.20% # Class of committed instruction (Count)
system.cpu.commit.committedInstType_0::SimdAesMix            0      0.00%     42.20% # Class of committed instruction (Count)
system.cpu.commit.committedInstType_0::SimdSha1Hash            0      0.00%     42.20% # Class of committed instruction (Count)
system.cpu.commit.committedInstType_0::SimdSha1Hash2            0      0.00%     42.20% # Class of committed instruction (Count)
system.cpu.commit.committedInstType_0::SimdSha256Hash            0      0.00%     42.20% # Class of committed instruction (Count)
system.cpu.commit.committedInstType_0::SimdSha256Hash2            0      0.00%     42.20% # Class of committed instruction (Count)
system.cpu.commit.committedInstType_0::SimdShaSigma2            0      0.00%     42.20% # Class of committed instruction (Count)
system.cpu.commit.committedInstType_0::SimdShaSigma3            0      0.00%     42.20% # Class of committed instruction (Count)
system.cpu.commit.committedInstType_0::SimdPredAlu            0      0.00%     42.20% # Class of committed instruction (Count)
system.cpu.commit.committedInstType_0::MemRead         5348      0.04%     42.23% # Class of committed instruction (Count)
system.cpu.commit.committedInstType_0::MemWrite       387371      2.65%     44.88% # Class of committed instruction (Count)
system.cpu.commit.committedInstType_0::FloatMemRead       767743      5.25%     50.13% # Class of committed instruction (Count)
system.cpu.commit.committedInstType_0::FloatMemWrite      7293487     49.87%    100.00% # Class of committed instruction (Count)
system.cpu.commit.committedInstType_0::IprAccess            0      0.00%    100.00% # Class of committed instruction (Count)
system.cpu.commit.committedInstType_0::InstPrefetch            0      0.00%    100.00% # Class of committed instruction (Count)
system.cpu.commit.committedInstType_0::total     14625141                       # Class of committed instruction (Count)
system.cpu.commit.commitEligibleSamples        106764                       # number cycles where commit BW limit reached (Cycle)
system.cpu.dcache.demandHits::cpu.data        7509899                       # number of demand (read+write) hits (Count)
system.cpu.dcache.demandHits::total           7509899                       # number of demand (read+write) hits (Count)
system.cpu.dcache.overallHits::cpu.data       7509899                       # number of overall hits (Count)
system.cpu.dcache.overallHits::total          7509899                       # number of overall hits (Count)
system.cpu.dcache.demandMisses::cpu.data       959925                       # number of demand (read+write) misses (Count)
system.cpu.dcache.demandMisses::total          959925                       # number of demand (read+write) misses (Count)
system.cpu.dcache.overallMisses::cpu.data       959925                       # number of overall misses (Count)
system.cpu.dcache.overallMisses::total         959925                       # number of overall misses (Count)
system.cpu.dcache.demandMissLatency::cpu.data  78947316999                       # number of demand (read+write) miss ticks (Tick)
system.cpu.dcache.demandMissLatency::total  78947316999                       # number of demand (read+write) miss ticks (Tick)
system.cpu.dcache.overallMissLatency::cpu.data  78947316999                       # number of overall miss ticks (Tick)
system.cpu.dcache.overallMissLatency::total  78947316999                       # number of overall miss ticks (Tick)
system.cpu.dcache.demandAccesses::cpu.data      8469824                       # number of demand (read+write) accesses (Count)
system.cpu.dcache.demandAccesses::total       8469824                       # number of demand (read+write) accesses (Count)
system.cpu.dcache.overallAccesses::cpu.data      8469824                       # number of overall (read+write) accesses (Count)
system.cpu.dcache.overallAccesses::total      8469824                       # number of overall (read+write) accesses (Count)
system.cpu.dcache.demandMissRate::cpu.data     0.113335                       # miss rate for demand accesses (Ratio)
system.cpu.dcache.demandMissRate::total      0.113335                       # miss rate for demand accesses (Ratio)
system.cpu.dcache.overallMissRate::cpu.data     0.113335                       # miss rate for overall accesses (Ratio)
system.cpu.dcache.overallMissRate::total     0.113335                       # miss rate for overall accesses (Ratio)
system.cpu.dcache.demandAvgMissLatency::cpu.data 82243.213792                       # average overall miss latency ((Cycle/Count))
system.cpu.dcache.demandAvgMissLatency::total 82243.213792                       # average overall miss latency ((Cycle/Count))
system.cpu.dcache.overallAvgMissLatency::cpu.data 82243.213792                       # average overall miss latency ((Cycle/Count))
system.cpu.dcache.overallAvgMissLatency::total 82243.213792                       # average overall miss latency ((Cycle/Count))
system.cpu.dcache.blockedCycles::no_mshrs          163                       # number of cycles access was blocked (Cycle)
system.cpu.dcache.blockedCycles::no_targets            0                       # number of cycles access was blocked (Cycle)
system.cpu.dcache.blockedCauses::no_mshrs            5                       # number of times access was blocked (Count)
system.cpu.dcache.blockedCauses::no_targets            0                       # number of times access was blocked (Count)
system.cpu.dcache.avgBlocked::no_mshrs      32.600000                       # average number of cycles each access was blocked ((Cycle/Count))
system.cpu.dcache.avgBlocked::no_targets          nan                       # average number of cycles each access was blocked ((Cycle/Count))
system.cpu.dcache.writebacks::writebacks       959241                       # number of writebacks (Count)
system.cpu.dcache.writebacks::total            959241                       # number of writebacks (Count)
system.cpu.dcache.demandMshrHits::cpu.data          115                       # number of demand (read+write) MSHR hits (Count)
system.cpu.dcache.demandMshrHits::total           115                       # number of demand (read+write) MSHR hits (Count)
system.cpu.dcache.overallMshrHits::cpu.data          115                       # number of overall MSHR hits (Count)
system.cpu.dcache.overallMshrHits::total          115                       # number of overall MSHR hits (Count)
system.cpu.dcache.demandMshrMisses::cpu.data       959810                       # number of demand (read+write) MSHR misses (Count)
system.cpu.dcache.demandMshrMisses::total       959810                       # number of demand (read+write) MSHR misses (Count)
system.cpu.dcache.overallMshrMisses::cpu.data       959810                       # number of overall MSHR misses (Count)
system.cpu.dcache.overallMshrMisses::total       959810                       # number of overall MSHR misses (Count)
system.cpu.dcache.demandMshrMissLatency::cpu.data  77979237000                       # number of demand (read+write) MSHR miss ticks (Tick)
system.cpu.dcache.demandMshrMissLatency::total  77979237000                       # number of demand (read+write) MSHR miss ticks (Tick)
system.cpu.dcache.overallMshrMissLatency::cpu.data  77979237000                       # number of overall MSHR miss ticks (Tick)
system.cpu.dcache.overallMshrMissLatency::total  77979237000                       # number of overall MSHR miss ticks (Tick)
system.cpu.dcache.demandMshrMissRate::cpu.data     0.113321                       # mshr miss ratio for demand accesses (Ratio)
system.cpu.dcache.demandMshrMissRate::total     0.113321                       # mshr miss ratio for demand accesses (Ratio)
system.cpu.dcache.overallMshrMissRate::cpu.data     0.113321                       # mshr miss ratio for overall accesses (Ratio)
system.cpu.dcache.overallMshrMissRate::total     0.113321                       # mshr miss ratio for overall accesses (Ratio)
system.cpu.dcache.demandAvgMshrMissLatency::cpu.data 81244.451506                       # average overall mshr miss latency ((Cycle/Count))
system.cpu.dcache.demandAvgMshrMissLatency::total 81244.451506                       # average overall mshr miss latency ((Cycle/Count))
system.cpu.dcache.overallAvgMshrMissLatency::cpu.data 81244.451506                       # average overall mshr miss latency ((Cycle/Count))
system.cpu.dcache.overallAvgMshrMissLatency::total 81244.451506                       # average overall mshr miss latency ((Cycle/Count))
system.cpu.dcache.replacements                 959296                       # number of replacements (Count)
system.cpu.dcache.ReadReq.hits::cpu.data       788771                       # number of ReadReq hits (Count)
system.cpu.dcache.ReadReq.hits::total          788771                       # number of ReadReq hits (Count)
system.cpu.dcache.ReadReq.misses::cpu.data          198                       # number of ReadReq misses (Count)
system.cpu.dcache.ReadReq.misses::total           198                       # number of ReadReq misses (Count)
system.cpu.dcache.ReadReq.missLatency::cpu.data     15674500                       # number of ReadReq miss ticks (Tick)
system.cpu.dcache.ReadReq.missLatency::total     15674500                       # number of ReadReq miss ticks (Tick)
system.cpu.dcache.ReadReq.accesses::cpu.data       788969                       # number of ReadReq accesses(hits+misses) (Count)
system.cpu.dcache.ReadReq.accesses::total       788969                       # number of ReadReq accesses(hits+misses) (Count)
system.cpu.dcache.ReadReq.missRate::cpu.data     0.000251                       # miss rate for ReadReq accesses (Ratio)
system.cpu.dcache.ReadReq.missRate::total     0.000251                       # miss rate for ReadReq accesses (Ratio)
system.cpu.dcache.ReadReq.avgMissLatency::cpu.data 79164.141414                       # average ReadReq miss latency ((Tick/Count))
system.cpu.dcache.ReadReq.avgMissLatency::total 79164.141414                       # average ReadReq miss latency ((Tick/Count))
system.cpu.dcache.ReadReq.mshrHits::cpu.data          111                       # number of ReadReq MSHR hits (Count)
system.cpu.dcache.ReadReq.mshrHits::total          111                       # number of ReadReq MSHR hits (Count)
system.cpu.dcache.ReadReq.mshrMisses::cpu.data           87                       # number of ReadReq MSHR misses (Count)
system.cpu.dcache.ReadReq.mshrMisses::total           87                       # number of ReadReq MSHR misses (Count)
system.cpu.dcache.ReadReq.mshrMissLatency::cpu.data      7602500                       # number of ReadReq MSHR miss ticks (Tick)
system.cpu.dcache.ReadReq.mshrMissLatency::total      7602500                       # number of ReadReq MSHR miss ticks (Tick)
system.cpu.dcache.ReadReq.mshrMissRate::cpu.data     0.000110                       # mshr miss rate for ReadReq accesses (Ratio)
system.cpu.dcache.ReadReq.mshrMissRate::total     0.000110                       # mshr miss rate for ReadReq accesses (Ratio)
system.cpu.dcache.ReadReq.avgMshrMissLatency::cpu.data 87385.057471                       # average ReadReq mshr miss latency ((Tick/Count))
system.cpu.dcache.ReadReq.avgMshrMissLatency::total 87385.057471                       # average ReadReq mshr miss latency ((Tick/Count))
system.cpu.dcache.WriteReq.hits::cpu.data      6721128                       # number of WriteReq hits (Count)
system.cpu.dcache.WriteReq.hits::total        6721128                       # number of WriteReq hits (Count)
system.cpu.dcache.WriteReq.misses::cpu.data       959727                       # number of WriteReq misses (Count)
system.cpu.dcache.WriteReq.misses::total       959727                       # number of WriteReq misses (Count)
system.cpu.dcache.WriteReq.missLatency::cpu.data  78931642499                       # number of WriteReq miss ticks (Tick)
system.cpu.dcache.WriteReq.missLatency::total  78931642499                       # number of WriteReq miss ticks (Tick)
system.cpu.dcache.WriteReq.accesses::cpu.data      7680855                       # number of WriteReq accesses(hits+misses) (Count)
system.cpu.dcache.WriteReq.accesses::total      7680855                       # number of WriteReq accesses(hits+misses) (Count)
system.cpu.dcache.WriteReq.missRate::cpu.data     0.124951                       # miss rate for WriteReq accesses (Ratio)
system.cpu.dcache.WriteReq.missRate::total     0.124951                       # miss rate for WriteReq accesses (Ratio)
system.cpu.dcache.WriteReq.avgMissLatency::cpu.data 82243.849031                       # average WriteReq miss latency ((Tick/Count))
system.cpu.dcache.WriteReq.avgMissLatency::total 82243.849031                       # average WriteReq miss latency ((Tick/Count))
system.cpu.dcache.WriteReq.mshrHits::cpu.data            4                       # number of WriteReq MSHR hits (Count)
system.cpu.dcache.WriteReq.mshrHits::total            4                       # number of WriteReq MSHR hits (Count)
system.cpu.dcache.WriteReq.mshrMisses::cpu.data       959723                       # number of WriteReq MSHR misses (Count)
system.cpu.dcache.WriteReq.mshrMisses::total       959723                       # number of WriteReq MSHR misses (Count)
system.cpu.dcache.WriteReq.mshrMissLatency::cpu.data  77971634500                       # number of WriteReq MSHR miss ticks (Tick)
system.cpu.dcache.WriteReq.mshrMissLatency::total  77971634500                       # number of WriteReq MSHR miss ticks (Tick)
system.cpu.dcache.WriteReq.mshrMissRate::cpu.data     0.124950                       # mshr miss rate for WriteReq accesses (Ratio)
system.cpu.dcache.WriteReq.mshrMissRate::total     0.124950                       # mshr miss rate for WriteReq accesses (Ratio)
system.cpu.dcache.WriteReq.avgMshrMissLatency::cpu.data 81243.894853                       # average WriteReq mshr miss latency ((Tick/Count))
system.cpu.dcache.WriteReq.avgMshrMissLatency::total 81243.894853                       # average WriteReq mshr miss latency ((Tick/Count))
system.cpu.dcache.power_state.pwrStateResidencyTicks::UNDEFINED  90896398000                       # Cumulative time (in ticks) in various power states (Tick)
system.cpu.dcache.tags.tagsInUse           511.742945                       # Average ticks per tags in use ((Tick/Count))
system.cpu.dcache.tags.totalRefs              8469710                       # Total number of references to valid blocks. (Count)
system.cpu.dcache.tags.sampledRefs             959808                       # Sample count of references to valid blocks. (Count)
system.cpu.dcache.tags.avgRefs               8.824379                       # Average number of references to valid blocks. ((Count/Count))
system.cpu.dcache.tags.warmupTick              176500                       # The tick when the warmup percentage was hit. (Tick)
system.cpu.dcache.tags.occupancies::cpu.data   511.742945                       # Average occupied blocks per tick, per requestor ((Count/Tick))
system.cpu.dcache.tags.avgOccs::cpu.data     0.999498                       # Average percentage of cache occupancy ((Ratio/Tick))
system.cpu.dcache.tags.avgOccs::total        0.999498                       # Average percentage of cache occupancy ((Ratio/Tick))
system.cpu.dcache.tags.occupanciesTaskId::1024          512                       # Occupied blocks per task id (Count)
system.cpu.dcache.tags.ageTaskId_1024::0          106                       # Occupied blocks per task id, per block age (Count)
system.cpu.dcache.tags.ageTaskId_1024::1          405                       # Occupied blocks per task id, per block age (Count)
system.cpu.dcache.tags.ageTaskId_1024::4            1                       # Occupied blocks per task id, per block age (Count)
system.cpu.dcache.tags.ratioOccsTaskId::1024            1                       # Ratio of occupied blocks and all blocks, per task id (Ratio)
system.cpu.dcache.tags.tagAccesses           34839104                       # Number of tag accesses (Count)
system.cpu.dcache.tags.dataAccesses          34839104                       # Number of data accesses (Count)
system.cpu.dcache.tags.power_state.pwrStateResidencyTicks::UNDEFINED  90896398000                       # Cumulative time (in ticks) in various power states (Tick)
system.cpu.decode.idleCycles                   450448                       # Number of cycles decode is idle (Cycle)
system.cpu.decode.blockedCycles             179375473                       # Number of cycles decode is blocked (Cycle)
system.cpu.decode.runCycles                   1056300                       # Number of cycles decode is running (Cycle)
system.cpu.decode.unblockCycles                855403                       # Number of cycles decode is unblocking (Cycle)
system.cpu.decode.squashCycles                  15864                       # Number of cycles decode is squashing (Cycle)
system.cpu.decode.branchResolved               398454                       # Number of times decode resolved a branch (Count)
system.cpu.decode.branchMispred                   248                       # Number of times decode detected a branch misprediction (Count)
system.cpu.decode.decodedInsts               15095862                       # Number of instructions handled by decode (Count)
system.cpu.decode.squashedInsts                  1272                       # Number of squashed instructions handled by decode (Count)
system.cpu.dtb_walker_cache.blockedCycles::no_mshrs            0                       # number of cycles access was blocked (Cycle)
system.cpu.dtb_walker_cache.blockedCycles::no_targets            0                       # number of cycles access was blocked (Cycle)
system.cpu.dtb_walker_cache.blockedCauses::no_mshrs            0                       # number of times access was blocked (Count)
system.cpu.dtb_walker_cache.blockedCauses::no_targets            0                       # number of times access was blocked (Count)
system.cpu.dtb_walker_cache.avgBlocked::no_mshrs          nan                       # average number of cycles each access was blocked ((Cycle/Count))
system.cpu.dtb_walker_cache.avgBlocked::no_targets          nan                       # average number of cycles each access was blocked ((Cycle/Count))
system.cpu.dtb_walker_cache.replacements            0                       # number of replacements (Count)
system.cpu.dtb_walker_cache.power_state.pwrStateResidencyTicks::UNDEFINED  90896398000                       # Cumulative time (in ticks) in various power states (Tick)
system.cpu.dtb_walker_cache.tags.tagsInUse            0                       # Average ticks per tags in use ((Tick/Count))
system.cpu.dtb_walker_cache.tags.totalRefs            0                       # Total number of references to valid blocks. (Count)
system.cpu.dtb_walker_cache.tags.sampledRefs            0                       # Sample count of references to valid blocks. (Count)
system.cpu.dtb_walker_cache.tags.avgRefs          nan                       # Average number of references to valid blocks. ((Count/Count))
system.cpu.dtb_walker_cache.tags.warmupTick            0                       # The tick when the warmup percentage was hit. (Tick)
system.cpu.dtb_walker_cache.tags.tagAccesses            0                       # Number of tag accesses (Count)
system.cpu.dtb_walker_cache.tags.dataAccesses            0                       # Number of data accesses (Count)
system.cpu.dtb_walker_cache.tags.power_state.pwrStateResidencyTicks::UNDEFINED  90896398000                       # Cumulative time (in ticks) in various power states (Tick)
system.cpu.fetch.icacheStallCycles            1680928                       # Number of cycles fetch is stalled on an Icache miss (Cycle)
system.cpu.fetch.insts                       10834566                       # Number of instructions fetch has processed (Count)
system.cpu.fetch.branches                      419729                       # Number of branches that fetch encountered (Count)
system.cpu.fetch.predictedBranches             414272                       # Number of branches that fetch has predicted taken (Count)
system.cpu.fetch.cycles                     180055742                       # Number of cycles fetch has run and was not squashing or blocked (Cycle)
system.cpu.fetch.squashCycles                   32212                       # Number of cycles fetch has spent squashing (Cycle)
system.cpu.fetch.miscStallCycles                   82                       # Number of cycles fetch has spent waiting on interrupts, or bad addresses, or out of MSHRs (Cycle)
system.cpu.fetch.pendingTrapStallCycles           616                       # Number of stall cycles due to pending traps (Cycle)
system.cpu.fetch.icacheWaitRetryStallCycles           14                       # Number of stall cycles due to full MSHR (Cycle)
system.cpu.fetch.cacheLines                   1660169                       # Number of cache lines fetched (Count)
system.cpu.fetch.icacheSquashes                   468                       # Number of outstanding Icache misses that were squashed (Count)
system.cpu.fetch.nisnDist::samples          181753488                       # Number of instructions fetched each cycle (Total) (Count)
system.cpu.fetch.nisnDist::mean              0.087048                       # Number of instructions fetched each cycle (Total) (Count)
system.cpu.fetch.nisnDist::stdev             0.733858                       # Number of instructions fetched each cycle (Total) (Count)
system.cpu.fetch.nisnDist::underflows               0      0.00%      0.00% # Number of instructions fetched each cycle (Total) (Count)
system.cpu.fetch.nisnDist::0                178952958     98.46%     98.46% # Number of instructions fetched each cycle (Total) (Count)
system.cpu.fetch.nisnDist::1                    93592      0.05%     98.51% # Number of instructions fetched each cycle (Total) (Count)
system.cpu.fetch.nisnDist::2                   105371      0.06%     98.57% # Number of instructions fetched each cycle (Total) (Count)
system.cpu.fetch.nisnDist::3                   108530      0.06%     98.63% # Number of instructions fetched each cycle (Total) (Count)
system.cpu.fetch.nisnDist::4                   105892      0.06%     98.69% # Number of instructions fetched each cycle (Total) (Count)
system.cpu.fetch.nisnDist::5                  1338445      0.74%     99.42% # Number of instructions fetched each cycle (Total) (Count)
system.cpu.fetch.nisnDist::6                   102776      0.06%     99.48% # Number of instructions fetched each cycle (Total) (Count)
system.cpu.fetch.nisnDist::7                   108407      0.06%     99.54% # Number of instructions fetched each cycle (Total) (Count)
system.cpu.fetch.nisnDist::8                   837517      0.46%    100.00% # Number of instructions fetched each cycle (Total) (Count)
system.cpu.fetch.nisnDist::overflows                0      0.00%    100.00% # Number of instructions fetched each cycle (Total) (Count)
system.cpu.fetch.nisnDist::min_value                0                       # Number of instructions fetched each cycle (Total) (Count)
system.cpu.fetch.nisnDist::max_value                8                       # Number of instructions fetched each cycle (Total) (Count)
system.cpu.fetch.nisnDist::total            181753488                       # Number of instructions fetched each cycle (Total) (Count)
system.cpu.fetch.branchRate                  0.002309                       # Number of branch fetches per cycle (Ratio)
system.cpu.fetch.rate                        0.059598                       # Number of inst fetches per cycle ((Count/Cycle))
system.cpu.icache.demandHits::cpu.inst        1659484                       # number of demand (read+write) hits (Count)
system.cpu.icache.demandHits::total           1659484                       # number of demand (read+write) hits (Count)
system.cpu.icache.overallHits::cpu.inst       1659484                       # number of overall hits (Count)
system.cpu.icache.overallHits::total          1659484                       # number of overall hits (Count)
system.cpu.icache.demandMisses::cpu.inst          685                       # number of demand (read+write) misses (Count)
system.cpu.icache.demandMisses::total             685                       # number of demand (read+write) misses (Count)
system.cpu.icache.overallMisses::cpu.inst          685                       # number of overall misses (Count)
system.cpu.icache.overallMisses::total            685                       # number of overall misses (Count)
system.cpu.icache.demandMissLatency::cpu.inst     49271499                       # number of demand (read+write) miss ticks (Tick)
system.cpu.icache.demandMissLatency::total     49271499                       # number of demand (read+write) miss ticks (Tick)
system.cpu.icache.overallMissLatency::cpu.inst     49271499                       # number of overall miss ticks (Tick)
system.cpu.icache.overallMissLatency::total     49271499                       # number of overall miss ticks (Tick)
system.cpu.icache.demandAccesses::cpu.inst      1660169                       # number of demand (read+write) accesses (Count)
system.cpu.icache.demandAccesses::total       1660169                       # number of demand (read+write) accesses (Count)
system.cpu.icache.overallAccesses::cpu.inst      1660169                       # number of overall (read+write) accesses (Count)
system.cpu.icache.overallAccesses::total      1660169                       # number of overall (read+write) accesses (Count)
system.cpu.icache.demandMissRate::cpu.inst     0.000413                       # miss rate for demand accesses (Ratio)
system.cpu.icache.demandMissRate::total      0.000413                       # miss rate for demand accesses (Ratio)
system.cpu.icache.overallMissRate::cpu.inst     0.000413                       # miss rate for overall accesses (Ratio)
system.cpu.icache.overallMissRate::total     0.000413                       # miss rate for overall accesses (Ratio)
system.cpu.icache.demandAvgMissLatency::cpu.inst 71929.195620                       # average overall miss latency ((Cycle/Count))
system.cpu.icache.demandAvgMissLatency::total 71929.195620                       # average overall miss latency ((Cycle/Count))
system.cpu.icache.overallAvgMissLatency::cpu.inst 71929.195620                       # average overall miss latency ((Cycle/Count))
system.cpu.icache.overallAvgMissLatency::total 71929.195620                       # average overall miss latency ((Cycle/Count))
system.cpu.icache.blockedCycles::no_mshrs           34                       # number of cycles access was blocked (Cycle)
system.cpu.icache.blockedCycles::no_targets            0                       # number of cycles access was blocked (Cycle)
system.cpu.icache.blockedCauses::no_mshrs            2                       # number of times access was blocked (Count)
system.cpu.icache.blockedCauses::no_targets            0                       # number of times access was blocked (Count)
system.cpu.icache.avgBlocked::no_mshrs             17                       # average number of cycles each access was blocked ((Cycle/Count))
system.cpu.icache.avgBlocked::no_targets          nan                       # average number of cycles each access was blocked ((Cycle/Count))
system.cpu.icache.writebacks::writebacks           77                       # number of writebacks (Count)
system.cpu.icache.writebacks::total                77                       # number of writebacks (Count)
system.cpu.icache.demandMshrHits::cpu.inst          190                       # number of demand (read+write) MSHR hits (Count)
system.cpu.icache.demandMshrHits::total           190                       # number of demand (read+write) MSHR hits (Count)
system.cpu.icache.overallMshrHits::cpu.inst          190                       # number of overall MSHR hits (Count)
system.cpu.icache.overallMshrHits::total          190                       # number of overall MSHR hits (Count)
system.cpu.icache.demandMshrMisses::cpu.inst          495                       # number of demand (read+write) MSHR misses (Count)
system.cpu.icache.demandMshrMisses::total          495                       # number of demand (read+write) MSHR misses (Count)
system.cpu.icache.overallMshrMisses::cpu.inst          495                       # number of overall MSHR misses (Count)
system.cpu.icache.overallMshrMisses::total          495                       # number of overall MSHR misses (Count)
system.cpu.icache.demandMshrMissLatency::cpu.inst     37948499                       # number of demand (read+write) MSHR miss ticks (Tick)
system.cpu.icache.demandMshrMissLatency::total     37948499                       # number of demand (read+write) MSHR miss ticks (Tick)
system.cpu.icache.overallMshrMissLatency::cpu.inst     37948499                       # number of overall MSHR miss ticks (Tick)
system.cpu.icache.overallMshrMissLatency::total     37948499                       # number of overall MSHR miss ticks (Tick)
system.cpu.icache.demandMshrMissRate::cpu.inst     0.000298                       # mshr miss ratio for demand accesses (Ratio)
system.cpu.icache.demandMshrMissRate::total     0.000298                       # mshr miss ratio for demand accesses (Ratio)
system.cpu.icache.overallMshrMissRate::cpu.inst     0.000298                       # mshr miss ratio for overall accesses (Ratio)
system.cpu.icache.overallMshrMissRate::total     0.000298                       # mshr miss ratio for overall accesses (Ratio)
system.cpu.icache.demandAvgMshrMissLatency::cpu.inst 76663.634343                       # average overall mshr miss latency ((Cycle/Count))
system.cpu.icache.demandAvgMshrMissLatency::total 76663.634343                       # average overall mshr miss latency ((Cycle/Count))
system.cpu.icache.overallAvgMshrMissLatency::cpu.inst 76663.634343                       # average overall mshr miss latency ((Cycle/Count))
system.cpu.icache.overallAvgMshrMissLatency::total 76663.634343                       # average overall mshr miss latency ((Cycle/Count))
system.cpu.icache.replacements                     77                       # number of replacements (Count)
system.cpu.icache.ReadReq.hits::cpu.inst      1659484                       # number of ReadReq hits (Count)
system.cpu.icache.ReadReq.hits::total         1659484                       # number of ReadReq hits (Count)
system.cpu.icache.ReadReq.misses::cpu.inst          685                       # number of ReadReq misses (Count)
system.cpu.icache.ReadReq.misses::total           685                       # number of ReadReq misses (Count)
system.cpu.icache.ReadReq.missLatency::cpu.inst     49271499                       # number of ReadReq miss ticks (Tick)
system.cpu.icache.ReadReq.missLatency::total     49271499                       # number of ReadReq miss ticks (Tick)
system.cpu.icache.ReadReq.accesses::cpu.inst      1660169                       # number of ReadReq accesses(hits+misses) (Count)
system.cpu.icache.ReadReq.accesses::total      1660169                       # number of ReadReq accesses(hits+misses) (Count)
system.cpu.icache.ReadReq.missRate::cpu.inst     0.000413                       # miss rate for ReadReq accesses (Ratio)
system.cpu.icache.ReadReq.missRate::total     0.000413                       # miss rate for ReadReq accesses (Ratio)
system.cpu.icache.ReadReq.avgMissLatency::cpu.inst 71929.195620                       # average ReadReq miss latency ((Tick/Count))
system.cpu.icache.ReadReq.avgMissLatency::total 71929.195620                       # average ReadReq miss latency ((Tick/Count))
system.cpu.icache.ReadReq.mshrHits::cpu.inst          190                       # number of ReadReq MSHR hits (Count)
system.cpu.icache.ReadReq.mshrHits::total          190                       # number of ReadReq MSHR hits (Count)
system.cpu.icache.ReadReq.mshrMisses::cpu.inst          495                       # number of ReadReq MSHR misses (Count)
system.cpu.icache.ReadReq.mshrMisses::total          495                       # number of ReadReq MSHR misses (Count)
system.cpu.icache.ReadReq.mshrMissLatency::cpu.inst     37948499                       # number of ReadReq MSHR miss ticks (Tick)
system.cpu.icache.ReadReq.mshrMissLatency::total     37948499                       # number of ReadReq MSHR miss ticks (Tick)
system.cpu.icache.ReadReq.mshrMissRate::cpu.inst     0.000298                       # mshr miss rate for ReadReq accesses (Ratio)
system.cpu.icache.ReadReq.mshrMissRate::total     0.000298                       # mshr miss rate for ReadReq accesses (Ratio)
system.cpu.icache.ReadReq.avgMshrMissLatency::cpu.inst 76663.634343                       # average ReadReq mshr miss latency ((Tick/Count))
system.cpu.icache.ReadReq.avgMshrMissLatency::total 76663.634343                       # average ReadReq mshr miss latency ((Tick/Count))
system.cpu.icache.power_state.pwrStateResidencyTicks::UNDEFINED  90896398000                       # Cumulative time (in ticks) in various power states (Tick)
system.cpu.icache.tags.tagsInUse           415.922330                       # Average ticks per tags in use ((Tick/Count))
system.cpu.icache.tags.totalRefs              1659979                       # Total number of references to valid blocks. (Count)
system.cpu.icache.tags.sampledRefs                495                       # Sample count of references to valid blocks. (Count)
system.cpu.icache.tags.avgRefs            3353.492929                       # Average number of references to valid blocks. ((Count/Count))
system.cpu.icache.tags.warmupTick               87500                       # The tick when the warmup percentage was hit. (Tick)
system.cpu.icache.tags.occupancies::cpu.inst   415.922330                       # Average occupied blocks per tick, per requestor ((Count/Tick))
system.cpu.icache.tags.avgOccs::cpu.inst     0.812348                       # Average percentage of cache occupancy ((Ratio/Tick))
system.cpu.icache.tags.avgOccs::total        0.812348                       # Average percentage of cache occupancy ((Ratio/Tick))
system.cpu.icache.tags.occupanciesTaskId::1024          416                       # Occupied blocks per task id (Count)
system.cpu.icache.tags.ageTaskId_1024::4          416                       # Occupied blocks per task id, per block age (Count)
system.cpu.icache.tags.ratioOccsTaskId::1024     0.812500                       # Ratio of occupied blocks and all blocks, per task id (Ratio)
system.cpu.icache.tags.tagAccesses            6641171                       # Number of tag accesses (Count)
system.cpu.icache.tags.dataAccesses           6641171                       # Number of data accesses (Count)
system.cpu.icache.tags.power_state.pwrStateResidencyTicks::UNDEFINED  90896398000                       # Cumulative time (in ticks) in various power states (Tick)
system.cpu.interrupts.clk_domain.clock           8000                       # Clock period in ticks (Tick)
system.cpu.itb_walker_cache.blockedCycles::no_mshrs            0                       # number of cycles access was blocked (Cycle)
system.cpu.itb_walker_cache.blockedCycles::no_targets            0                       # number of cycles access was blocked (Cycle)
system.cpu.itb_walker_cache.blockedCauses::no_mshrs            0                       # number of times access was blocked (Count)
system.cpu.itb_walker_cache.blockedCauses::no_targets            0                       # number of times access was blocked (Count)
system.cpu.itb_walker_cache.avgBlocked::no_mshrs          nan                       # average number of cycles each access was blocked ((Cycle/Count))
system.cpu.itb_walker_cache.avgBlocked::no_targets          nan                       # average number of cycles each access was blocked ((Cycle/Count))
system.cpu.itb_walker_cache.replacements            0                       # number of replacements (Count)
system.cpu.itb_walker_cache.power_state.pwrStateResidencyTicks::UNDEFINED  90896398000                       # Cumulative time (in ticks) in various power states (Tick)
system.cpu.itb_walker_cache.tags.tagsInUse            0                       # Average ticks per tags in use ((Tick/Count))
system.cpu.itb_walker_cache.tags.totalRefs            0                       # Total number of references to valid blocks. (Count)
system.cpu.itb_walker_cache.tags.sampledRefs            0                       # Sample count of references to valid blocks. (Count)
system.cpu.itb_walker_cache.tags.avgRefs          nan                       # Average number of references to valid blocks. ((Count/Count))
system.cpu.itb_walker_cache.tags.warmupTick            0                       # The tick when the warmup percentage was hit. (Tick)
system.cpu.itb_walker_cache.tags.tagAccesses            0                       # Number of tag accesses (Count)
system.cpu.itb_walker_cache.tags.dataAccesses            0                       # Number of data accesses (Count)
system.cpu.itb_walker_cache.tags.power_state.pwrStateResidencyTicks::UNDEFINED  90896398000                       # Cumulative time (in ticks) in various power states (Tick)
system.cpu.lsq0.forwLoads                        1331                       # Number of loads that had data forwarded from stores (Count)
system.cpu.lsq0.squashedLoads                   18516                       # Number of loads squashed (Count)
system.cpu.lsq0.ignoredResponses                   12                       # Number of memory responses ignored because the instruction is squashed (Count)
system.cpu.lsq0.memOrderViolation                 102                       # Number of memory ordering violations (Count)
system.cpu.lsq0.squashedStores                 109996                       # Number of stores squashed (Count)
system.cpu.lsq0.rescheduledLoads                    0                       # Number of loads that were rescheduled (Count)
system.cpu.lsq0.blockedByCache                      4                       # Number of times an access to memory failed due to the cache being blocked (Count)
system.cpu.lsq0.loadToUse::samples             773091                       # Distribution of cycle latency between the first time a load is issued and its completion (Unspecified)
system.cpu.lsq0.loadToUse::mean              3.024207                       # Distribution of cycle latency between the first time a load is issued and its completion (Unspecified)
system.cpu.lsq0.loadToUse::stdev             2.135413                       # Distribution of cycle latency between the first time a load is issued and its completion (Unspecified)
system.cpu.lsq0.loadToUse::0-9                 772979     99.99%     99.99% # Distribution of cycle latency between the first time a load is issued and its completion (Unspecified)
system.cpu.lsq0.loadToUse::10-19                    2      0.00%     99.99% # Distribution of cycle latency between the first time a load is issued and its completion (Unspecified)
system.cpu.lsq0.loadToUse::20-29                    2      0.00%     99.99% # Distribution of cycle latency between the first time a load is issued and its completion (Unspecified)
system.cpu.lsq0.loadToUse::70-79                    1      0.00%     99.99% # Distribution of cycle latency between the first time a load is issued and its completion (Unspecified)
system.cpu.lsq0.loadToUse::80-89                    1      0.00%     99.99% # Distribution of cycle latency between the first time a load is issued and its completion (Unspecified)
system.cpu.lsq0.loadToUse::110-119                  3      0.00%     99.99% # Distribution of cycle latency between the first time a load is issued and its completion (Unspecified)
system.cpu.lsq0.loadToUse::120-129                  8      0.00%     99.99% # Distribution of cycle latency between the first time a load is issued and its completion (Unspecified)
system.cpu.lsq0.loadToUse::130-139                  4      0.00%     99.99% # Distribution of cycle latency between the first time a load is issued and its completion (Unspecified)
system.cpu.lsq0.loadToUse::140-149                 19      0.00%     99.99% # Distribution of cycle latency between the first time a load is issued and its completion (Unspecified)
system.cpu.lsq0.loadToUse::150-159                 11      0.00%     99.99% # Distribution of cycle latency between the first time a load is issued and its completion (Unspecified)
[...]
system.mem_ctrls.dram.perBankWrBursts::14        59713                       # Per bank write bursts (Count)
system.mem_ctrls.dram.perBankWrBursts::15        59776                       # Per bank write bursts (Count)
system.mem_ctrls.dram.totQLat              9660676000                       # Total ticks spent queuing (Tick)
system.mem_ctrls.dram.totBusLat            4801430000                       # Total ticks spent in databus transfers (Tick)
system.mem_ctrls.dram.totMemAccLat        27666038500                       # Total ticks spent from burst creation until serviced by the DRAM (Tick)
system.mem_ctrls.dram.avgQLat                10060.21                       # Average queueing delay per DRAM burst ((Tick/Count))
system.mem_ctrls.dram.avgBusLat               5000.00                       # Average bus latency per DRAM burst ((Tick/Count))
system.mem_ctrls.dram.avgMemAccLat           28810.21                       # Average memory access latency per DRAM burst ((Tick/Count))
system.mem_ctrls.dram.readRowHits              888109                       # Number of row buffer hits during reads (Count)
system.mem_ctrls.dram.writeRowHits             888332                       # Number of row buffer hits during writes (Count)
system.mem_ctrls.dram.readRowHitRate            92.48                       # Row buffer hit rate for reads (Ratio)
system.mem_ctrls.dram.writeRowHitRate           92.96                       # Row buffer hit rate for writes (Ratio)
system.mem_ctrls.dram.bytesPerActivate::samples       139479                       # Bytes accessed per row activation (Byte)
system.mem_ctrls.dram.bytesPerActivate::mean   879.119351                       # Bytes accessed per row activation (Byte)
system.mem_ctrls.dram.bytesPerActivate::gmean   743.543487                       # Bytes accessed per row activation (Byte)
system.mem_ctrls.dram.bytesPerActivate::stdev   300.501133                       # Bytes accessed per row activation (Byte)
system.mem_ctrls.dram.bytesPerActivate::0-127         9774      7.01%      7.01% # Bytes accessed per row activation (Byte)
system.mem_ctrls.dram.bytesPerActivate::128-255         3711      2.66%      9.67% # Bytes accessed per row activation (Byte)
system.mem_ctrls.dram.bytesPerActivate::256-383         2674      1.92%     11.59% # Bytes accessed per row activation (Byte)
system.mem_ctrls.dram.bytesPerActivate::384-511         2774      1.99%     13.57% # Bytes accessed per row activation (Byte)
system.mem_ctrls.dram.bytesPerActivate::512-639         2698      1.93%     15.51% # Bytes accessed per row activation (Byte)
system.mem_ctrls.dram.bytesPerActivate::640-767         3433      2.46%     17.97% # Bytes accessed per row activation (Byte)
system.mem_ctrls.dram.bytesPerActivate::768-895         2882      2.07%     20.04% # Bytes accessed per row activation (Byte)
system.mem_ctrls.dram.bytesPerActivate::896-1023        11296      8.10%     28.13% # Bytes accessed per row activation (Byte)
system.mem_ctrls.dram.bytesPerActivate::1024-1151       100237     71.87%    100.00% # Bytes accessed per row activation (Byte)
system.mem_ctrls.dram.bytesPerActivate::total       139479                       # Bytes accessed per row activation (Byte)
system.mem_ctrls.dram.bytesRead              61458304                       # Total number of bytes read from DRAM (Byte)
system.mem_ctrls.dram.bytesWritten           61160640                       # Total number of bytes written to DRAM (Byte)
system.mem_ctrls.dram.avgRdBW              676.135747                       # Average DRAM read bandwidth in MiBytes/s ((Byte/Second))
system.mem_ctrls.dram.avgWrBW              672.860986                       # Average DRAM write bandwidth in MiBytes/s ((Byte/Second))
system.mem_ctrls.dram.peakBW                 12800.00                       # Theoretical peak bandwidth in MiByte/s ((Byte/Second))
system.mem_ctrls.dram.busUtil                   10.54                       # Data bus utilization in percentage (Ratio)
system.mem_ctrls.dram.busUtilRead                5.28                       # Data bus utilization in percentage for reads (Ratio)
system.mem_ctrls.dram.busUtilWrite               5.26                       # Data bus utilization in percentage for writes (Ratio)
system.mem_ctrls.dram.pageHitRate               92.72                       # Row buffer hit rate, read and write combined (Ratio)
system.mem_ctrls.dram.power_state.pwrStateResidencyTicks::UNDEFINED  90896398000                       # Cumulative time (in ticks) in various power states (Tick)
system.mem_ctrls.dram.rank0.actEnergy       498236340                       # Energy for activate commands per rank (pJ) (Joule)
system.mem_ctrls.dram.rank0.preEnergy       264815100                       # Energy for precharge commands per rank (pJ) (Joule)
system.mem_ctrls.dram.rank0.readEnergy     3430677180                       # Energy for read commands per rank (pJ) (Joule)
system.mem_ctrls.dram.rank0.writeEnergy    2496073500                       # Energy for write commands per rank (pJ) (Joule)
system.mem_ctrls.dram.rank0.refreshEnergy 7174692720.000001                       # Energy for refresh commands per rank (pJ) (Joule)
system.mem_ctrls.dram.rank0.actBackEnergy  21692320710                       # Energy for active background per rank (pJ) (Joule)
system.mem_ctrls.dram.rank0.preBackEnergy  16636999680                       # Energy for precharge background per rank (pJ) (Joule)
system.mem_ctrls.dram.rank0.actPowerDownEnergy            0                       # Energy for active power-down per rank (pJ) (Joule)
system.mem_ctrls.dram.rank0.prePowerDownEnergy            0                       # Energy for precharge power-down per rank (pJ) (Joule)
system.mem_ctrls.dram.rank0.selfRefreshEnergy            0                       # Energy for self refresh per rank (pJ) (Joule)
system.mem_ctrls.dram.rank0.totalEnergy   52193815230                       # Total energy per rank (pJ) (Joule)
system.mem_ctrls.dram.rank0.averagePower   574.212140                       # Core power per rank (mW) (Watt)
system.mem_ctrls.dram.rank0.totalIdleTime            0                       # Total Idle time Per DRAM Rank (Tick)
system.mem_ctrls.dram.rank0.pwrStateTime::IDLE  42594519500                       # Time in different power states (Tick)
system.mem_ctrls.dram.rank0.pwrStateTime::REF   3034980000                       # Time in different power states (Tick)
system.mem_ctrls.dram.rank0.pwrStateTime::SREF            0                       # Time in different power states (Tick)
system.mem_ctrls.dram.rank0.pwrStateTime::PRE_PDN            0                       # Time in different power states (Tick)
system.mem_ctrls.dram.rank0.pwrStateTime::ACT  45266898500                       # Time in different power states (Tick)
system.mem_ctrls.dram.rank0.pwrStateTime::ACT_PDN            0                       # Time in different power states (Tick)
system.mem_ctrls.dram.rank1.actEnergy       497650860                       # Energy for activate commands per rank (pJ) (Joule)
system.mem_ctrls.dram.rank1.preEnergy       264507705                       # Energy for precharge commands per rank (pJ) (Joule)
system.mem_ctrls.dram.rank1.readEnergy     3425764860                       # Energy for read commands per rank (pJ) (Joule)
system.mem_ctrls.dram.rank1.writeEnergy    2492341200                       # Energy for write commands per rank (pJ) (Joule)
system.mem_ctrls.dram.rank1.refreshEnergy 7174692720.000001                       # Energy for refresh commands per rank (pJ) (Joule)
system.mem_ctrls.dram.rank1.actBackEnergy  21670055370                       # Energy for active background per rank (pJ) (Joule)
system.mem_ctrls.dram.rank1.preBackEnergy  16655749440                       # Energy for precharge background per rank (pJ) (Joule)
system.mem_ctrls.dram.rank1.actPowerDownEnergy            0                       # Energy for active power-down per rank (pJ) (Joule)
system.mem_ctrls.dram.rank1.prePowerDownEnergy            0                       # Energy for precharge power-down per rank (pJ) (Joule)
system.mem_ctrls.dram.rank1.selfRefreshEnergy            0                       # Energy for self refresh per rank (pJ) (Joule)
system.mem_ctrls.dram.rank1.totalEnergy   52180762155                       # Total energy per rank (pJ) (Joule)
system.mem_ctrls.dram.rank1.averagePower   574.068536                       # Core power per rank (mW) (Watt)
system.mem_ctrls.dram.rank1.totalIdleTime            0                       # Total Idle time Per DRAM Rank (Tick)
system.mem_ctrls.dram.rank1.pwrStateTime::IDLE  42644945000                       # Time in different power states (Tick)
system.mem_ctrls.dram.rank1.pwrStateTime::REF   3034980000                       # Time in different power states (Tick)
system.mem_ctrls.dram.rank1.pwrStateTime::SREF            0                       # Time in different power states (Tick)
system.mem_ctrls.dram.rank1.pwrStateTime::PRE_PDN            0                       # Time in different power states (Tick)
system.mem_ctrls.dram.rank1.pwrStateTime::ACT  45216473000                       # Time in different power states (Tick)
system.mem_ctrls.dram.rank1.pwrStateTime::ACT_PDN            0                       # Time in different power states (Tick)
system.mem_ctrls.power_state.pwrStateResidencyTicks::UNDEFINED  90896398000                       # Cumulative time (in ticks) in various power states (Tick)
system.membus.transDist::ReadResp                 565                       # Transaction distribution (Count)
system.membus.transDist::WritebackDirty        955656                       # Transaction distribution (Count)
system.membus.transDist::CleanEvict               117                       # Transaction distribution (Count)
system.membus.transDist::ReadExReq             959721                       # Transaction distribution (Count)
system.membus.transDist::ReadExResp            959721                       # Transaction distribution (Count)
system.membus.transDist::ReadSharedReq            565                       # Transaction distribution (Count)
system.membus.pktCount_system.l2.mem_side_port::system.mem_ctrls.port      2876345                       # Packet count per connected requestor and responder (Count)
system.membus.pktCount_system.l2.mem_side_port::total      2876345                       # Packet count per connected requestor and responder (Count)
system.membus.pktCount::total                 2876345                       # Packet count per connected requestor and responder (Count)
system.membus.pktSize_system.l2.mem_side_port::system.mem_ctrls.port    122620288                       # Cumulative packet size per connected requestor and responder (Byte)
system.membus.pktSize_system.l2.mem_side_port::total    122620288                       # Cumulative packet size per connected requestor and responder (Byte)
system.membus.pktSize::total                122620288                       # Cumulative packet size per connected requestor and responder (Byte)
system.membus.snoops                                0                       # Total snoops (Count)
system.membus.snoopTraffic                          0                       # Total snoop traffic (Byte)
system.membus.snoopFanout::samples             960286                       # Request fanout histogram (Count)
system.membus.snoopFanout::mean                     0                       # Request fanout histogram (Count)
system.membus.snoopFanout::stdev                    0                       # Request fanout histogram (Count)
system.membus.snoopFanout::underflows               0      0.00%      0.00% # Request fanout histogram (Count)
system.membus.snoopFanout::0                   960286    100.00%    100.00% # Request fanout histogram (Count)
system.membus.snoopFanout::1                        0      0.00%    100.00% # Request fanout histogram (Count)
system.membus.snoopFanout::overflows                0      0.00%    100.00% # Request fanout histogram (Count)
system.membus.snoopFanout::min_value                0                       # Request fanout histogram (Count)
system.membus.snoopFanout::max_value                0                       # Request fanout histogram (Count)
system.membus.snoopFanout::total               960286                       # Request fanout histogram (Count)
system.membus.power_state.pwrStateResidencyTicks::UNDEFINED  90896398000                       # Cumulative time (in ticks) in various power states (Tick)
system.membus.reqLayer2.occupancy          5902262500                       # Layer occupancy (ticks) (Tick)
system.membus.reqLayer2.utilization               0.1                       # Layer utilization (Ratio)
system.membus.respLayer1.occupancy         5053838500                       # Layer occupancy (ticks) (Tick)
system.membus.respLayer1.utilization              0.1                       # Layer utilization (Ratio)
system.membus.snoop_filter.totRequests        1916059                       # Total number of requests made to the snoop filter. (Count)
system.membus.snoop_filter.hitSingleRequests       955773                       # Number of requests hitting in the snoop filter with a single holder of the requested data. (Count)
system.membus.snoop_filter.hitMultiRequests            0                       # Number of requests hitting in the snoop filter with multiple (>1) holders of the requested data. (Count)
system.membus.snoop_filter.totSnoops                0                       # Total number of snoops made to the snoop filter. (Count)
system.membus.snoop_filter.hitSingleSnoops            0                       # Number of snoops hitting in the snoop filter with a single holder of the requested data. (Count)
system.membus.snoop_filter.hitMultiSnoops            0                       # Number of snoops hitting in the snoop filter with multiple (>1) holders of the requested data. (Count)
system.tol2bus.transDist::ReadResp                582                       # Transaction distribution (Count)
system.tol2bus.transDist::WritebackDirty      1914897                       # Transaction distribution (Count)
system.tol2bus.transDist::WritebackClean           77                       # Transaction distribution (Count)
system.tol2bus.transDist::CleanEvict              589                       # Transaction distribution (Count)
system.tol2bus.transDist::UpgradeReq                2                       # Transaction distribution (Count)
system.tol2bus.transDist::UpgradeResp               2                       # Transaction distribution (Count)
system.tol2bus.transDist::ReadExReq            959721                       # Transaction distribution (Count)
system.tol2bus.transDist::ReadExResp           959721                       # Transaction distribution (Count)
system.tol2bus.transDist::ReadCleanReq            495                       # Transaction distribution (Count)
system.tol2bus.transDist::ReadSharedReq            87                       # Transaction distribution (Count)
system.tol2bus.pktCount_system.cpu.icache.mem_side_port::system.l2.cpu_side_port         1066                       # Packet count per connected requestor and responder (Count)
system.tol2bus.pktCount_system.cpu.dcache.mem_side_port::system.l2.cpu_side_port      2878916                       # Packet count per connected requestor and responder (Count)
system.tol2bus.pktCount::total                2879982                       # Packet count per connected requestor and responder (Count)
system.tol2bus.pktSize_system.cpu.icache.mem_side_port::system.l2.cpu_side_port        36544                       # Cumulative packet size per connected requestor and responder (Byte)
system.tol2bus.pktSize_system.cpu.dcache.mem_side_port::system.l2.cpu_side_port    122819136                       # Cumulative packet size per connected requestor and responder (Byte)
system.tol2bus.pktSize::total               122855680                       # Cumulative packet size per connected requestor and responder (Byte)
system.tol2bus.snoops                          956191                       # Total snoops (Count)
system.tol2bus.snoopTraffic                  61162048                       # Total snoop traffic (Byte)
system.tol2bus.snoopFanout::samples           1916495                       # Request fanout histogram (Count)
system.tol2bus.snoopFanout::mean             0.000222                       # Request fanout histogram (Count)
system.tol2bus.snoopFanout::stdev            0.014890                       # Request fanout histogram (Count)
system.tol2bus.snoopFanout::underflows              0      0.00%      0.00% # Request fanout histogram (Count)
system.tol2bus.snoopFanout::0                 1916070     99.98%     99.98% # Request fanout histogram (Count)
system.tol2bus.snoopFanout::1                     425      0.02%    100.00% # Request fanout histogram (Count)
system.tol2bus.snoopFanout::2                       0      0.00%    100.00% # Request fanout histogram (Count)
system.tol2bus.snoopFanout::3                       0      0.00%    100.00% # Request fanout histogram (Count)
system.tol2bus.snoopFanout::4                       0      0.00%    100.00% # Request fanout histogram (Count)
system.tol2bus.snoopFanout::overflows               0      0.00%    100.00% # Request fanout histogram (Count)
system.tol2bus.snoopFanout::min_value               0                       # Request fanout histogram (Count)
system.tol2bus.snoopFanout::max_value               1                       # Request fanout histogram (Count)
system.tol2bus.snoopFanout::total             1916495                       # Request fanout histogram (Count)
system.tol2bus.power_state.pwrStateResidencyTicks::UNDEFINED  90896398000                       # Cumulative time (in ticks) in various power states (Tick)
system.tol2bus.reqLayer0.occupancy         1919157000                       # Layer occupancy (ticks) (Tick)
system.tol2bus.reqLayer0.utilization              0.0                       # Layer utilization (Ratio)
system.tol2bus.respLayer0.occupancy            742500                       # Layer occupancy (ticks) (Tick)
system.tol2bus.respLayer0.utilization             0.0                       # Layer utilization (Ratio)
system.tol2bus.respLayer1.occupancy        1439713000                       # Layer occupancy (ticks) (Tick)
system.tol2bus.respLayer1.utilization             0.0                       # Layer utilization (Ratio)
system.tol2bus.snoop_filter.totRequests       1919678                       # Total number of requests made to the snoop filter. (Count)
system.tol2bus.snoop_filter.hitSingleRequests       959373                       # Number of requests hitting in the snoop filter with a single holder of the requested data. (Count)
system.tol2bus.snoop_filter.hitMultiRequests            6                       # Number of requests hitting in the snoop filter with multiple (>1) holders of the requested data. (Count)
system.tol2bus.snoop_filter.totSnoops             419                       # Total number of snoops made to the snoop filter. (Count)
system.tol2bus.snoop_filter.hitSingleSnoops          419                       # Number of snoops hitting in the snoop filter with a single holder of the requested data. (Count)
system.tol2bus.snoop_filter.hitMultiSnoops            0                       # Number of snoops hitting in the snoop filter with multiple (>1) holders of the requested data. (Count)
system.voltage_domain.voltage                       1                       # Voltage in Volts (Volt)
system.workload.inst.arm                            0                       # number of arm instructions executed (Count)
system.workload.inst.quiesce                        0                       # number of quiesce instructions executed (Count)

---------- End Simulation Statistics   ----------
