
---------- Begin Simulation Statistics ----------
simSeconds                                   0.006558                       # Number of seconds simulated (Second)
simTicks                                   6557581000                       # Number of ticks simulated (Tick)
finalTick                                  6557581000                       # Number of ticks from beginning of simulation (restored from checkpoints and never reset) (Tick)
simFreq                                  1000000000000                       # The number of ticks per simulated second ((Tick/Second))
hostSeconds                                    382.57                       # Real time elapsed on the host (Second)
hostTickRate                                 17140889                       # The number of ticks simulated per host second (ticks/s) ((Tick/Second))
hostMemory                                    2215920                       # Number of bytes of host memory used (Byte)
simInsts                                     10000000                       # Number of instructions simulated (Count)
simOps                                       19234736                       # Number of ops (including micro ops) simulated (Count)
hostInstRate                                    26139                       # Simulator instruction rate (inst/s) ((Count/Second))
hostOpRate                                      50278                       # Simulator op (including micro ops) rate (op/s) ((Count/Second))
system.clk_domain.clock                          1000                       # Clock period in ticks (Tick)
system.cpu.numCycles                         13115163                       # Number of cpu cycles simulated (Cycle)
system.cpu.numWorkItemsStarted                      0                       # Number of work items this cpu started (Count)
system.cpu.numWorkItemsCompleted                    0                       # Number of work items this cpu completed (Count)
system.cpu.instsAdded                        34221983                       # Number of instructions added to the IQ (excludes non-spec) (Count)
system.cpu.nonSpecInstsAdded                    11248                       # Number of non-speculative instructions added to the IQ (Count)
system.cpu.instsIssued                       29488514                       # Number of instructions issued (Count)
system.cpu.squashedInstsIssued                  54613                       # Number of squashed instructions issued (Count)
system.cpu.squashedInstsExamined             14998435                       # Number of squashed instructions iterated over during squash; mainly for profiling (Count)
system.cpu.squashedOperandsExamined          20075653                       # Number of squashed operands that are examined and possibly removed from graph (Count)
system.cpu.squashedNonSpecRemoved               11244                       # Number of squashed non-spec instructions that were removed (Count)
system.cpu.numIssuedDist::samples            13076045                       # Number of insts issued each cycle (Count)
system.cpu.numIssuedDist::mean               2.255155                       # Number of insts issued each cycle (Count)
system.cpu.numIssuedDist::stdev              2.671766                       # Number of insts issued each cycle (Count)
system.cpu.numIssuedDist::underflows                0      0.00%      0.00% # Number of insts issued each cycle (Count)
system.cpu.numIssuedDist::0                   6450928     49.33%     49.33% # Number of insts issued each cycle (Count)
system.cpu.numIssuedDist::1                    726556      5.56%     54.89% # Number of insts issued each cycle (Count)
system.cpu.numIssuedDist::2                    760039      5.81%     60.70% # Number of insts issued each cycle (Count)
system.cpu.numIssuedDist::3                    715709      5.47%     66.18% # Number of insts issued each cycle (Count)
system.cpu.numIssuedDist::4                    987971      7.56%     73.73% # Number of insts issued each cycle (Count)
system.cpu.numIssuedDist::5                   1184196      9.06%     82.79% # Number of insts issued each cycle (Count)
system.cpu.numIssuedDist::6                    964822      7.38%     90.17% # Number of insts issued each cycle (Count)
system.cpu.numIssuedDist::7                    853635      6.53%     96.69% # Number of insts issued each cycle (Count)
system.cpu.numIssuedDist::8                    432189      3.31%    100.00% # Number of insts issued each cycle (Count)
system.cpu.numIssuedDist::overflows                 0      0.00%    100.00% # Number of insts issued each cycle (Count)
system.cpu.numIssuedDist::min_value                 0                       # Number of insts issued each cycle (Count)
system.cpu.numIssuedDist::max_value                 8                       # Number of insts issued each cycle (Count)
system.cpu.numIssuedDist::total              13076045                       # Number of insts issued each cycle (Count)
system.cpu.statFuBusy::No_OpClass                   0      0.00%      0.00% # attempts to use FU when none available (Count)
system.cpu.statFuBusy::IntAlu                  495672     80.84%     80.84% # attempts to use FU when none available (Count)
system.cpu.statFuBusy::IntMult                      0      0.00%     80.84% # attempts to use FU when none available (Count)
system.cpu.statFuBusy::IntDiv                       0      0.00%     80.84% # attempts to use FU when none available (Count)
system.cpu.statFuBusy::FloatAdd                     0      0.00%     80.84% # attempts to use FU when none available (Count)
system.cpu.statFuBusy::FloatCmp                     0      0.00%     80.84% # attempts to use FU when none available (Count)
system.cpu.statFuBusy::FloatCvt                     0      0.00%     80.84% # attempts to use FU when none available (Count)
system.cpu.statFuBusy::FloatMult                    0      0.00%     80.84% # attempts to use FU when none available (Count)
system.cpu.statFuBusy::FloatMultAcc                 0      0.00%     80.84% # attempts to use FU when none available (Count)
system.cpu.statFuBusy::FloatDiv                     0      0.00%     80.84% # attempts to use FU when none available (Count)
system.cpu.statFuBusy::FloatMisc                    0      0.00%     80.84% # attempts to use FU when none available (Count)
system.cpu.statFuBusy::FloatSqrt                    0      0.00%     80.84% # attempts to use FU when none available (Count)
system.cpu.statFuBusy::SimdAdd                      0      0.00%     80.84% # attempts to use FU when none available (Count)
system.cpu.statFuBusy::SimdAddAcc                   0      0.00%     80.84% # attempts to use FU when none available (Count)
system.cpu.statFuBusy::SimdAlu                      0      0.00%     80.84% # attempts to use FU when none available (Count)
system.cpu.statFuBusy::SimdCmp                      0      0.00%     80.84% # attempts to use FU when none available (Count)
system.cpu.statFuBusy::SimdCvt                      0      0.00%     80.84% # attempts to use FU when none available (Count)
system.cpu.statFuBusy::SimdMisc                     0      0.00%     80.84% # attempts to use FU when none available (Count)
system.cpu.statFuBusy::SimdMult                     0      0.00%     80.84% # attempts to use FU when none available (Count)
system.cpu.statFuBusy::SimdMultAcc                  0      0.00%     80.84% # attempts to use FU when none available (Count)
system.cpu.statFuBusy::SimdShift                    0      0.00%     80.84% # attempts to use FU when none available (Count)
system.cpu.statFuBusy::SimdShiftAcc                 0      0.00%     80.84% # attempts to use FU when none available (Count)
system.cpu.statFuBusy::SimdDiv                      0      0.00%     80.84% # attempts to use FU when none available (Count)
system.cpu.statFuBusy::SimdSqrt                     0      0.00%     80.84% # attempts to use FU when none available (Count)
system.cpu.statFuBusy::SimdFloatAdd                 0      0.00%     80.84% # attempts to use FU when none available (Count)
system.cpu.statFuBusy::SimdFloatAlu                 0      0.00%     80.84% # attempts to use FU when none available (Count)
system.cpu.statFuBusy::SimdFloatCmp                 0      0.00%     80.84% # attempts to use FU when none available (Count)
system.cpu.statFuBusy::SimdFloatCvt                 0      0.00%     80.84% # attempts to use FU when none available (Count)
system.cpu.statFuBusy::SimdFloatDiv                 0      0.00%     80.84% # attempts to use FU when none available (Count)
system.cpu.statFuBusy::SimdFloatMisc                0      0.00%     80.84% # attempts to use FU when none available (Count)
system.cpu.statFuBusy::SimdFloatMult                0      0.00%     80.84% # attempts to use FU when none available (Count)
system.cpu.statFuBusy::SimdFloatMultAcc             0      0.00%     80.84% # attempts to use FU when none available (Count)
system.cpu.statFuBusy::SimdFloatSqrt                0      0.00%     80.84% # attempts to use FU when none available (Count)
system.cpu.statFuBusy::SimdReduceAdd                0      0.00%     80.84% # attempts to use FU when none available (Count)
system.cpu.statFuBusy::SimdReduceAlu                0      0.00%     80.84% # attempts to use FU when none available (Count)
system.cpu.statFuBusy::SimdReduceCmp                0      0.00%     80.84% # attempts to use FU when none available (Count)
system.cpu.statFuBusy::SimdFloatReduceAdd            0      0.00%     80.84% # attempts to use FU when none available (Count)
system.cpu.statFuBusy::SimdFloatReduceCmp            0      0.00%     80.84% # attempts to use FU when none available (Count)
system.cpu.statFuBusy::SimdAes                      0      0.00%     80.84% # attempts to use FU when none available (Count)
system.cpu.statFuBusy::SimdAesMix                   0      0.00%     80.84% # attempts to use FU when none available (Count)
system.cpu.statFuBusy::SimdSha1Hash                 0      0.00%     80.84% # attempts to use FU when none available (Count)
system.cpu.statFuBusy::SimdSha1Hash2                0      0.00%     80.84% # attempts to use FU when none available (Count)
system.cpu.statFuBusy::SimdSha256Hash               0      0.00%     80.84% # attempts to use FU when none available (Count)
system.cpu.statFuBusy::SimdSha256Hash2              0      0.00%     80.84% # attempts to use FU when none available (Count)
system.cpu.statFuBusy::SimdShaSigma2                0      0.00%     80.84% # attempts to use FU when none available (Count)
system.cpu.statFuBusy::SimdShaSigma3                0      0.00%     80.84% # attempts to use FU when none available (Count)
system.cpu.statFuBusy::SimdPredAlu                  0      0.00%     80.84% # attempts to use FU when none available (Count)
system.cpu.statFuBusy::MemRead                  58585      9.55%     90.40% # attempts to use FU when none available (Count)
system.cpu.statFuBusy::MemWrite                 58886      9.60%    100.00% # attempts to use FU when none available (Count)
system.cpu.statFuBusy::FloatMemRead                 0      0.00%    100.00% # attempts to use FU when none available (Count)
system.cpu.statFuBusy::FloatMemWrite                0      0.00%    100.00% # attempts to use FU when none available (Count)
system.cpu.statFuBusy::IprAccess                    0      0.00%    100.00% # attempts to use FU when none available (Count)
system.cpu.statFuBusy::InstPrefetch                 0      0.00%    100.00% # attempts to use FU when none available (Count)
system.cpu.statIssuedInstType_0::No_OpClass        10541      0.04%      0.04% # Number of instructions issued per FU type, per thread (Count)
system.cpu.statIssuedInstType_0::IntAlu      21670271     73.49%     73.52% # Number of instructions issued per FU type, per thread (Count)
system.cpu.statIssuedInstType_0::IntMult        62679      0.21%     73.74% # Number of instructions issued per FU type, per thread (Count)
system.cpu.statIssuedInstType_0::IntDiv            44      0.00%     73.74% # Number of instructions issued per FU type, per thread (Count)
system.cpu.statIssuedInstType_0::FloatAdd            0      0.00%     73.74% # Number of instructions issued per FU type, per thread (Count)
system.cpu.statIssuedInstType_0::FloatCmp            0      0.00%     73.74% # Number of instructions issued per FU type, per thread (Count)
system.cpu.statIssuedInstType_0::FloatCvt            0      0.00%     73.74% # Number of instructions issued per FU type, per thread (Count)
system.cpu.statIssuedInstType_0::FloatMult            0      0.00%     73.74% # Number of instructions issued per FU type, per thread (Count)
system.cpu.statIssuedInstType_0::FloatMultAcc            0      0.00%     73.74% # Number of instructions issued per FU type, per thread (Count)
system.cpu.statIssuedInstType_0::FloatDiv            0      0.00%     73.74% # Number of instructions issued per FU type, per thread (Count)
system.cpu.statIssuedInstType_0::FloatMisc            0      0.00%     73.74% # Number of instructions issued per FU type, per thread (Count)
system.cpu.statIssuedInstType_0::FloatSqrt            0      0.00%     73.74% # Number of instructions issued per FU type, per thread (Count)
system.cpu.statIssuedInstType_0::SimdAdd            0      0.00%     73.74% # Number of instructions issued per FU type, per thread (Count)
system.cpu.statIssuedInstType_0::SimdAddAcc            0      0.00%     73.74% # Number of instructions issued per FU type, per thread (Count)
system.cpu.statIssuedInstType_0::SimdAlu            0      0.00%     73.74% # Number of instructions issued per FU type, per thread (Count)
system.cpu.statIssuedInstType_0::SimdCmp            0      0.00%     73.74% # Number of instructions issued per FU type, per thread (Count)
system.cpu.statIssuedInstType_0::SimdCvt            0      0.00%     73.74% # Number of instructions issued per FU type, per thread (Count)
system.cpu.statIssuedInstType_0::SimdMisc            0      0.00%     73.74% # Number of instructions issued per FU type, per thread (Count)
system.cpu.statIssuedInstType_0::SimdMult            0      0.00%     73.74% # Number of instructions issued per FU type, per thread (Count)
system.cpu.statIssuedInstType_0::SimdMultAcc            0      0.00%     73.74% # Number of instructions issued per FU type, per thread (Count)
system.cpu.statIssuedInstType_0::SimdShift            0      0.00%     73.74% # Number of instructions issued per FU type, per thread (Count)
system.cpu.statIssuedInstType_0::SimdShiftAcc            0      0.00%     73.74% # Number of instructions issued per FU type, per thread (Count)
system.cpu.statIssuedInstType_0::SimdDiv            0      0.00%     73.74% # Number of instructions issued per FU type, per thread (Count)
system.cpu.statIssuedInstType_0::SimdSqrt            0      0.00%     73.74% # Number of instructions issued per FU type, per thread (Count)
system.cpu.statIssuedInstType_0::SimdFloatAdd            0      0.00%     73.74% # Number of instructions issued per FU type, per thread (Count)
system.cpu.statIssuedInstType_0::SimdFloatAlu            0      0.00%     73.74% # Number of instructions issued per FU type, per thread (Count)
system.cpu.statIssuedInstType_0::SimdFloatCmp            0      0.00%     73.74% # Number of instructions issued per FU type, per thread (Count)
system.cpu.statIssuedInstType_0::SimdFloatCvt            0      0.00%     73.74% # Number of instructions issued per FU type, per thread (Count)
system.cpu.statIssuedInstType_0::SimdFloatDiv            0      0.00%     73.74% # Number of instructions issued per FU type, per thread (Count)
system.cpu.statIssuedInstType_0::SimdFloatMisc            0      0.00%     73.74% # Number of instructions issued per FU type, per thread (Count)
system.cpu.statIssuedInstType_0::SimdFloatMult            0      0.00%     73.74% # Number of instructions issued per FU type, per thread (Count)
system.cpu.statIssuedInstType_0::SimdFloatMultAcc            0      0.00%     73.74% # Number of instructions issued per FU type, per thread (Count)
system.cpu.statIssuedInstType_0::SimdFloatSqrt            0      0.00%     73.74% # Number of instructions issued per FU type, per thread (Count)
system.cpu.statIssuedInstType_0::SimdReduceAdd            0      0.00%     73.74% # Number of instructions issued per FU type, per thread (Count)
system.cpu.statIssuedInstType_0::SimdReduceAlu            0      0.00%     73.74% # Number of instructions issued per FU type, per thread (Count)
system.cpu.statIssuedInstType_0::SimdReduceCmp            0      0.00%     73.74% # Number of instructions issued per FU type, per thread (Count)
system.cpu.statIssuedInstType_0::SimdFloatReduceAdd            0      0.00%     73.74% # Number of instructions issued per FU type, per thread (Count)
system.cpu.statIssuedInstType_0::SimdFloatReduceCmp            0      0.00%     73.74% # Number of instructions issued per FU type, per thread (Count)
system.cpu.statIssuedInstType_0::SimdAes            0      0.00%     73.74% # Number of instructions issued per FU type, per thread (Count)
system.cpu.statIssuedInstType_0::SimdAesMix            0      0.00%     73.74% # Number of instructions issued per FU type, per thread (Count)
system.cpu.statIssuedInstType_0::SimdSha1Hash            0      0.00%     73.74% # Number of instructions issued per FU type, per thread (Count)
system.cpu.statIssuedInstType_0::SimdSha1Hash2            0      0.00%     73.74% # Number of instructions issued per FU type, per thread (Count)
system.cpu.statIssuedInstType_0::SimdSha256Hash            0      0.00%     73.74% # Number of instructions issued per FU type, per thread (Count)
system.cpu.statIssuedInstType_0::SimdSha256Hash2            0      0.00%     73.74% # Number of instructions issued per FU type, per thread (Count)
system.cpu.statIssuedInstType_0::SimdShaSigma2            0      0.00%     73.74% # Number of instructions issued per FU type, per thread (Count)
system.cpu.statIssuedInstType_0::SimdShaSigma3            0      0.00%     73.74% # Number of instructions issued per FU type, per thread (Count)
system.cpu.statIssuedInstType_0::SimdPredAlu            0      0.00%     73.74% # Number of instructions issued per FU type, per thread (Count)
system.cpu.statIssuedInstType_0::MemRead      4884846     16.57%     90.30% # Number of instructions issued per FU type, per thread (Count)
system.cpu.statIssuedInstType_0::MemWrite      2860133      9.70%    100.00% # Number of instructions issued per FU type, per thread (Count)
system.cpu.statIssuedInstType_0::FloatMemRead            0      0.00%    100.00% # Number of instructions issued per FU type, per thread (Count)
system.cpu.statIssuedInstType_0::FloatMemWrite            0      0.00%    100.00% # Number of instructions issued per FU type, per thread (Count)
system.cpu.statIssuedInstType_0::IprAccess            0      0.00%    100.00% # Number of instructions issued per FU type, per thread (Count)
system.cpu.statIssuedInstType_0::InstPrefetch            0      0.00%    100.00% # Number of instructions issued per FU type, per thread (Count)
system.cpu.statIssuedInstType_0::total       29488514                       # Number of instructions issued per FU type, per thread (Count)
system.cpu.issueRate                         2.248429                       # Inst issue rate ((Count/Cycle))
system.cpu.fuBusy                              613143                       # FU busy when requested (Count)
system.cpu.fuBusyRate                        0.020793                       # FU busy rate (busy events/executed inst) ((Count/Count))
system.cpu.intInstQueueReads                 72720822                       # Number of integer instruction queue reads (Count)
system.cpu.intInstQueueWrites                49232664                       # Number of integer instruction queue writes (Count)
system.cpu.intInstQueueWakeupAccesses        28003488                       # Number of integer instruction queue wakeup accesses (Count)
system.cpu.fpInstQueueReads                         0                       # Number of floating instruction queue reads (Count)
system.cpu.fpInstQueueWrites                        0                       # Number of floating instruction queue writes (Count)
system.cpu.fpInstQueueWakeupAccesses                0                       # Number of floating instruction queue wakeup accesses (Count)
system.cpu.vecInstQueueReads                        0                       # Number of vector instruction queue reads (Count)
system.cpu.vecInstQueueWrites                       0                       # Number of vector instruction queue writes (Count)
system.cpu.vecInstQueueWakeupAccesses               0                       # Number of vector instruction queue wakeup accesses (Count)
system.cpu.intAluAccesses                    30091116                       # Number of integer alu accesses (Count)
system.cpu.fpAluAccesses                            0                       # Number of floating point alu accesses (Count)
system.cpu.vecAluAccesses                           0                       # Number of vector alu accesses (Count)
system.cpu.idleCycles                               0                       # Number of cycles IEW is idle (Cycle)
system.cpu.squashCycles                        405728                       # Number of cycles IEW is squashing (Cycle)
system.cpu.blockCycles                        1823361                       # Number of cycles IEW is blocking (Cycle)
system.cpu.unblockCycles                       546181                       # Number of cycles IEW is unblocking (Cycle)
system.cpu.dispatchedInsts                   34233231                       # Number of instructions dispatched to IQ (Count)
system.cpu.dispSquashedInsts                      365                       # Number of squashed instructions skipped by dispatch (Count)
system.cpu.dispLoadInsts                      5832600                       # Number of dispatched load instructions (Count)
system.cpu.dispStoreInsts                     3577834                       # Number of dispatched store instructions (Count)
system.cpu.dispNonSpecInsts                      4372                       # Number of dispatched non-speculative instructions (Count)
system.cpu.iqFullEvents                            87                       # Number of times the IQ has become full, causing a stall (Count)
system.cpu.lsqFullEvents                       543554                       # Number of times the LSQ has become full, causing a stall (Count)
system.cpu.memOrderViolationEvents               1037                       # Number of memory order violations (Count)
system.cpu.predictedTakenIncorrect              60164                       # Number of branches that were predicted taken incorrectly (Count)
system.cpu.predictedNotTakenIncorrect          431954                       # Number of branches that were predicted not taken incorrectly (Count)
system.cpu.branchMispredicts                   492118                       # Number of branch mispredicts detected at execute (Count)
system.cpu.numInsts                          28520712                       # Number of executed instructions (Count)
system.cpu.numLoadInsts                       4493186                       # Number of load instructions executed (Count)
system.cpu.numSquashedInsts                    967795                       # Number of squashed instructions skipped in execute (Count)
system.cpu.numSwp                                   0                       # Number of swp insts executed (Count)
system.cpu.numNop                                   0                       # Number of nop insts executed (Count)
system.cpu.numRefs                            7240524                       # Number of memory reference insts executed (Count)
system.cpu.numBranches                        3095987                       # Number of branches executed (Count)
system.cpu.numStoreInsts                      2747338                       # Number of stores executed (Count)
system.cpu.numRate                           2.174636                       # Inst execution rate ((Count/Cycle))
system.cpu.instsToCommit                     28284942                       # Cumulative count of insts sent to commit (Count)
system.cpu.writebackCount                    28003488                       # Cumulative count of insts written-back (Count)
system.cpu.producerInst                      20691082                       # Number of instructions producing a value (Count)
system.cpu.consumerInst                      31407304                       # Number of instructions consuming a value (Count)
system.cpu.wbRate                            2.135199                       # Insts written-back per cycle ((Count/Cycle))
system.cpu.wbFanout                          0.658798                       # Average fanout of values written-back ((Count/Count))
system.cpu.timesIdled                             330                       # Number of times that the entire CPU went into an idle state and unscheduled itself (Count)
system.cpu.idleCycles                           39118                       # Total number of cycles that the CPU has spent unscheduled due to idling (Cycle)
system.cpu.committedInsts                    10000000                       # Number of Instructions Simulated (Count)
system.cpu.committedOps                      19234736                       # Number of Ops (including micro ops) Simulated (Count)
system.cpu.cpi                               1.311516                       # CPI: Cycles Per Instruction ((Cycle/Count))
system.cpu.totalCpi                          1.311516                       # CPI: Total CPI of All Threads ((Cycle/Count))
system.cpu.ipc                               0.762476                       # IPC: Instructions Per Cycle ((Count/Cycle))
system.cpu.totalIpc                          0.762476                       # IPC: Total IPC of All Threads ((Count/Cycle))
system.cpu.intRegfileReads                   40042728                       # Number of integer regfile reads (Count)
system.cpu.intRegfileWrites                  22451873                       # Number of integer regfile writes (Count)
system.cpu.ccRegfileReads                    14979524                       # number of cc regfile reads (Count)
system.cpu.ccRegfileWrites                    8675003                       # number of cc regfile writes (Count)
system.cpu.miscRegfileReads                  13899389                       # number of misc regfile reads (Count)
system.cpu.miscRegfileWrites                        6                       # number of misc regfile writes (Count)
system.cpu.MemDepUnit__0.insertedLoads        5832600                       # Number of loads inserted to the mem dependence unit. (Count)
system.cpu.MemDepUnit__0.insertedStores       3577834                       # Number of stores inserted to the mem dependence unit. (Count)
system.cpu.MemDepUnit__0.conflictingLoads       631551                       # Number of conflicting loads. (Count)
system.cpu.MemDepUnit__0.conflictingStores       243802                       # Number of conflicting stores. (Count)
system.cpu.MemDepUnit__1.insertedLoads              0                       # Number of loads inserted to the mem dependence unit. (Count)
system.cpu.MemDepUnit__1.insertedStores             0                       # Number of stores inserted to the mem dependence unit. (Count)
system.cpu.MemDepUnit__1.conflictingLoads            0                       # Number of conflicting loads. (Count)
system.cpu.MemDepUnit__1.conflictingStores            0                       # Number of conflicting stores. (Count)
system.cpu.MemDepUnit__2.insertedLoads              0                       # Number of loads inserted to the mem dependence unit. (Count)
system.cpu.MemDepUnit__2.insertedStores             0                       # Number of stores inserted to the mem dependence unit. (Count)
system.cpu.MemDepUnit__2.conflictingLoads            0                       # Number of conflicting loads. (Count)
system.cpu.MemDepUnit__2.conflictingStores            0                       # Number of conflicting stores. (Count)
system.cpu.MemDepUnit__3.insertedLoads              0                       # Number of loads inserted to the mem dependence unit. (Count)
system.cpu.MemDepUnit__3.insertedStores             0                       # Number of stores inserted to the mem dependence unit. (Count)
system.cpu.MemDepUnit__3.conflictingLoads            0                       # Number of conflicting loads. (Count)
system.cpu.MemDepUnit__3.conflictingStores            0                       # Number of conflicting stores. (Count)
system.cpu.branchPred.lookups                 4835361                       # Number of BP lookups (Count)
system.cpu.branchPred.condPredicted           3669716                       # Number of conditional branches predicted (Count)
system.cpu.branchPred.condIncorrect            425697                       # Number of conditional branches incorrect (Count)
system.cpu.branchPred.BTBLookups              2018561                       # Number of BTB lookups (Count)
system.cpu.branchPred.BTBHits                 1211675                       # Number of BTB hits (Count)
system.cpu.branchPred.BTBHitRatio            0.600267                       # BTB Hit Ratio (Ratio)
system.cpu.branchPred.RASUsed                  363675                       # Number of times the RAS was used to get a target. (Count)
system.cpu.branchPred.RASIncorrect                 50                       # Number of incorrect RAS predictions. (Count)
system.cpu.branchPred.indirectLookups          112991                       # Number of indirect predictor lookups. (Count)
system.cpu.branchPred.indirectHits              52128                       # Number of indirect target hits. (Count)
system.cpu.branchPred.indirectMisses            60863                       # Number of indirect misses. (Count)
system.cpu.branchPred.indirectMispredicted          129                       # Number of mispredicted indirect branches. (Count)
system.cpu.commit.commitSquashedInsts        14994543                       # The number of squashed insts skipped by commit (Count)
system.cpu.commit.commitNonSpecStalls               4                       # The number of times commit has been forced to stall to communicate backwards (Count)
system.cpu.commit.branchMispredicts            404637                       # The number of times a branch was mispredicted (Count)
system.cpu.commit.numCommittedDist::samples     10852420                       # Number of insts commited each cycle (Count)
system.cpu.commit.numCommittedDist::mean     1.772391                       # Number of insts commited each cycle (Count)
system.cpu.commit.numCommittedDist::stdev     2.626050                       # Number of insts commited each cycle (Count)
system.cpu.commit.numCommittedDist::underflows            0      0.00%      0.00% # Number of insts commited each cycle (Count)
system.cpu.commit.numCommittedDist::0         5752903     53.01%     53.01% # Number of insts commited each cycle (Count)
system.cpu.commit.numCommittedDist::1         1438576     13.26%     66.27% # Number of insts commited each cycle (Count)
system.cpu.commit.numCommittedDist::2          699450      6.45%     72.71% # Number of insts commited each cycle (Count)
system.cpu.commit.numCommittedDist::3          894132      8.24%     80.95% # Number of insts commited each cycle (Count)
system.cpu.commit.numCommittedDist::4          385964      3.56%     84.51% # Number of insts commited each cycle (Count)
system.cpu.commit.numCommittedDist::5          296641      2.73%     87.24% # Number of insts commited each cycle (Count)
system.cpu.commit.numCommittedDist::6          142713      1.32%     88.56% # Number of insts commited each cycle (Count)
system.cpu.commit.numCommittedDist::7          104803      0.97%     89.52% # Number of insts commited each cycle (Count)
system.cpu.commit.numCommittedDist::8         1137238     10.48%    100.00% # Number of insts commited each cycle (Count)
system.cpu.commit.numCommittedDist::overflows            0      0.00%    100.00% # Number of insts commited each cycle (Count)
system.cpu.commit.numCommittedDist::min_value            0                       # Number of insts commited each cycle (Count)
system.cpu.commit.numCommittedDist::max_value            8                       # Number of insts commited each cycle (Count)
system.cpu.commit.numCommittedDist::total     10852420                       # Number of insts commited each cycle (Count)
system.cpu.commit.instsCommitted             10000000                       # Number of instructions committed (Count)
system.cpu.commit.opsCommitted               19234736                       # Number of ops (including micro ops) committed (Count)
system.cpu.commit.memRefs                     5012834                       # Number of memory references committed (Count)
system.cpu.commit.loads                       3058478                       # Number of loads committed (Count)
system.cpu.commit.amos                              0                       # Number of atomic instructions committed (Count)
system.cpu.commit.membars                           0                       # Number of memory barriers committed (Count)
system.cpu.commit.branches                    2319107                       # Number of branches committed (Count)
system.cpu.commit.vectorInstructions                0                       # Number of committed Vector instructions. (Count)
system.cpu.commit.floating                          0                       # Number of committed floating point instructions. (Count)
system.cpu.commit.integer                    19203313                       # Number of committed integer instructions. (Count)
system.cpu.commit.functionCalls                109571                       # Number of function calls committed. (Count)
system.cpu.commit.committedInstType_0::No_OpClass         5216      0.03%      0.03% # Class of committed instruction (Count)
system.cpu.commit.committedInstType_0::IntAlu     14154190     73.59%     73.61% # Class of committed instruction (Count)
system.cpu.commit.committedInstType_0::IntMult        62461      0.32%     73.94% # Class of committed instruction (Count)
system.cpu.commit.committedInstType_0::IntDiv           35      0.00%     73.94% # Class of committed instruction (Count)
system.cpu.commit.committedInstType_0::FloatAdd            0      0.00%     73.94% # Class of committed instruction (Count)
system.cpu.commit.committedInstType_0::FloatCmp            0      0.00%     73.94% # Class of committed instruction (Count)
system.cpu.commit.committedInstType_0::FloatCvt            0      0.00%     73.94% # Class of committed instruction (Count)
system.cpu.commit.committedInstType_0::FloatMult            0      0.00%     73.94% # Class of committed instruction (Count)
system.cpu.commit.committedInstType_0::FloatMultAcc            0      0.00%     73.94% # Class of committed instruction (Count)
system.cpu.commit.committedInstType_0::FloatDiv            0      0.00%     73.94% # Class of committed instruction (Count)
system.cpu.commit.committedInstType_0::FloatMisc            0      0.00%     73.94% # Class of committed instruction (Count)
system.cpu.commit.committedInstType_0::FloatSqrt            0      0.00%     73.94% # Class of committed instruction (Count)
system.cpu.commit.committedInstType_0::SimdAdd            0      0.00%     73.94% # Class of committed instruction (Count)
system.cpu.commit.committedInstType_0::SimdAddAcc            0      0.00%     73.94% # Class of committed instruction (Count)
system.cpu.commit.committedInstType_0::SimdAlu            0      0.00%     73.94% # Class of committed instruction (Count)
system.cpu.commit.committedInstType_0::SimdCmp            0      0.00%     73.94% # Class of committed instruction (Count)
system.cpu.commit.committedInstType_0::SimdCvt            0      0.00%     73.94% # Class of committed instruction (Count)
system.cpu.commit.committedInstType_0::SimdMisc            0      0.00%     73.94% # Class of committed instruction (Count)
system.cpu.commit.committedInstType_0::SimdMult            0      0.00%     73.94% # Class of committed instruction (Count)
system.cpu.commit.committedInstType_0::SimdMultAcc            0      0.00%     73.94% # Class of committed instruction (Count)
system.cpu.commit.committedInstType_0::SimdShift            0      0.00%     73.94% # Class of committed instruction (Count)
system.cpu.commit.committedInstType_0::SimdShiftAcc            0      0.00%     73.94% # Class of committed instruction (Count)
system.cpu.commit.committedInstType_0::SimdDiv            0      0.00%     73.94% # Class of committed instruction (Count)
system.cpu.commit.committedInstType_0::SimdSqrt            0      0.00%     73.94% # Class of committed instruction (Count)
system.cpu.commit.committedInstType_0::SimdFloatAdd            0      0.00%     73.94% # Class of committed instruction (Count)
system.cpu.commit.committedInstType_0::SimdFloatAlu            0      0.00%     73.94% # Class of committed instruction (Count)
system.cpu.commit.committedInstType_0::SimdFloatCmp            0      0.00%     73.94% # Class of committed instruction (Count)
system.cpu.commit.committedInstType_0::SimdFloatCvt            0      0.00%     73.94% # Class of committed instruction (Count)
system.cpu.commit.committedInstType_0::SimdFloatDiv            0      0.00%     73.94% # Class of committed instruction (Count)
system.cpu.commit.committedInstType_0::SimdFloatMisc            0      0.00%     73.94% # Class of committed instruction (Count)
system.cpu.commit.committedInstType_0::SimdFloatMult            0      0.00%     73.94% # Class of committed instruction (Count)
system.cpu.commit.committedInstType_0::SimdFloatMultAcc            0      0.00%     73.94% # Class of committed instruction (Count)
system.cpu.commit.committedInstType_0::SimdFloatSqrt            0      0.00%     73.94% # Class of committed instruction (Count)
system.cpu.commit.committedInstType_0::SimdReduceAdd            0      0.00%     73.94% # Class of committed instruction (Count)
system.cpu.commit.committedInstType_0::SimdReduceAlu            0      0.00%     73.94% # Class of committed instruction (Count)
system.cpu.commit.committedInstType_0::SimdReduceCmp            0      0.00%     73.94% # Class of committed instruction (Count)
system.cpu.commit.committedInstType_0::SimdFloatReduceAdd            0      0.00%     73.94% # Class of committed instruction (Count)
system.cpu.commit.committedInstType_0::SimdFloatReduceCmp            0      0.00%     73.94% # Class of committed instruction (Count)
system.cpu.commit.committedInstType_0::SimdAes            0      0.00%     73.94% # Class of committed instruction (Count)
system.cpu.commit.committedInstType_0::SimdAesMix            0      0.00%     73.94% # Class of committed instruction (Count)
system.cpu.commit.committedInstType_0::SimdSha1Hash            0      0.00%     73.94% # Class of committed instruction (Count)
system.cpu.commit.committedInstType_0::SimdSha1Hash2            0      0.00%     73.94% # Class of committed instruction (Count)
system.cpu.commit.committedInstType_0::SimdSha256Hash            0      0.00%     73.94% # Class of committed instruction (Count)
system.cpu.commit.committedInstType_0::SimdSha256Hash2            0      0.00%     73.94% # Class of committed instruction (Count)
system.cpu.commit.committedInstType_0::SimdShaSigma2            0      0.00%     73.94% # Class of committed instruction (Count)
system.cpu.commit.committedInstType_0::SimdShaSigma3            0      0.00%     73.94% # Class of committed instruction (Count)
system.cpu.commit.committedInstType_0::SimdPredAlu            0      0.00%     73.94% # Class of committed instruction (Count)
system.cpu.commit.committedInstType_0::MemRead      3058478     15.90%     89.84% # Class of committed instruction (Count)
system.cpu.commit.committedInstType_0::MemWrite      1954356     10.16%    100.00% # Class of committed instruction (Count)
system.cpu.commit.committedInstType_0::FloatMemRead            0      0.00%    100.00% # Class of committed instruction (Count)
system.cpu.commit.committedInstType_0::FloatMemWrite            0      0.00%    100.00% # Class of committed instruction (Count)
system.cpu.commit.committedInstType_0::IprAccess            0      0.00%    100.00% # Class of committed instruction (Count)
system.cpu.commit.committedInstType_0::InstPrefetch            0      0.00%    100.00% # Class of committed instruction (Count)
system.cpu.commit.committedInstType_0::total     19234736                       # Class of committed instruction (Count)
system.cpu.commit.commitEligibleSamples       1137238                       # number cycles where commit BW limit reached (Cycle)
system.cpu.dcache.demandHits::cpu.data        5387058                       # number of demand (read+write) hits (Count)
system.cpu.dcache.demandHits::total           5387058                       # number of demand (read+write) hits (Count)
system.cpu.dcache.overallHits::cpu.data       5387058                       # number of overall hits (Count)
system.cpu.dcache.overallHits::total          5387058                       # number of overall hits (Count)
system.cpu.dcache.demandMisses::cpu.data        32205                       # number of demand (read+write) misses (Count)
system.cpu.dcache.demandMisses::total           32205                       # number of demand (read+write) misses (Count)
system.cpu.dcache.overallMisses::cpu.data        32205                       # number of overall misses (Count)
system.cpu.dcache.overallMisses::total          32205                       # number of overall misses (Count)
system.cpu.dcache.demandMissLatency::cpu.data   2135610999                       # number of demand (read+write) miss ticks (Tick)
system.cpu.dcache.demandMissLatency::total   2135610999                       # number of demand (read+write) miss ticks (Tick)
system.cpu.dcache.overallMissLatency::cpu.data   2135610999                       # number of overall miss ticks (Tick)
system.cpu.dcache.overallMissLatency::total   2135610999                       # number of overall miss ticks (Tick)
system.cpu.dcache.demandAccesses::cpu.data      5419263                       # number of demand (read+write) accesses (Count)
system.cpu.dcache.demandAccesses::total       5419263                       # number of demand (read+write) accesses (Count)
system.cpu.dcache.overallAccesses::cpu.data      5419263                       # number of overall (read+write) accesses (Count)
system.cpu.dcache.overallAccesses::total      5419263                       # number of overall (read+write) accesses (Count)
system.cpu.dcache.demandMissRate::cpu.data     0.005943                       # miss rate for demand accesses (Ratio)
system.cpu.dcache.demandMissRate::total      0.005943                       # miss rate for demand accesses (Ratio)
system.cpu.dcache.overallMissRate::cpu.data     0.005943                       # miss rate for overall accesses (Ratio)
system.cpu.dcache.overallMissRate::total     0.005943                       # miss rate for overall accesses (Ratio)
system.cpu.dcache.demandAvgMissLatency::cpu.data 66313.025897                       # average overall miss latency ((Cycle/Count))
system.cpu.dcache.demandAvgMissLatency::total 66313.025897                       # average overall miss latency ((Cycle/Count))
system.cpu.dcache.overallAvgMissLatency::cpu.data 66313.025897                       # average overall miss latency ((Cycle/Count))
system.cpu.dcache.overallAvgMissLatency::total 66313.025897                       # average overall miss latency ((Cycle/Count))
system.cpu.dcache.blockedCycles::no_mshrs          199                       # number of cycles access was blocked (Cycle)
system.cpu.dcache.blockedCycles::no_targets            0                       # number of cycles access was blocked (Cycle)
system.cpu.dcache.blockedCauses::no_mshrs            6                       # number of times access was blocked (Count)
system.cpu.dcache.blockedCauses::no_targets            0                       # number of times access was blocked (Count)
system.cpu.dcache.avgBlocked::no_mshrs      33.166667                       # average number of cycles each access was blocked ((Cycle/Count))
system.cpu.dcache.avgBlocked::no_targets          nan                       # average number of cycles each access was blocked ((Cycle/Count))
system.cpu.dcache.writebacks::writebacks        16541                       # number of writebacks (Count)
system.cpu.dcache.writebacks::total             16541                       # number of writebacks (Count)
system.cpu.dcache.demandMshrHits::cpu.data        14122                       # number of demand (read+write) MSHR hits (Count)
system.cpu.dcache.demandMshrHits::total         14122                       # number of demand (read+write) MSHR hits (Count)
system.cpu.dcache.overallMshrHits::cpu.data        14122                       # number of overall MSHR hits (Count)
system.cpu.dcache.overallMshrHits::total        14122                       # number of overall MSHR hits (Count)
system.cpu.dcache.demandMshrMisses::cpu.data        18083                       # number of demand (read+write) MSHR misses (Count)
system.cpu.dcache.demandMshrMisses::total        18083                       # number of demand (read+write) MSHR misses (Count)
system.cpu.dcache.overallMshrMisses::cpu.data        18083                       # number of overall MSHR misses (Count)
system.cpu.dcache.overallMshrMisses::total        18083                       # number of overall MSHR misses (Count)
system.cpu.dcache.demandMshrMissLatency::cpu.data   1407941500                       # number of demand (read+write) MSHR miss ticks (Tick)
system.cpu.dcache.demandMshrMissLatency::total   1407941500                       # number of demand (read+write) MSHR miss ticks (Tick)
system.cpu.dcache.overallMshrMissLatency::cpu.data   1407941500                       # number of overall MSHR miss ticks (Tick)
system.cpu.dcache.overallMshrMissLatency::total   1407941500                       # number of overall MSHR miss ticks (Tick)
system.cpu.dcache.demandMshrMissRate::cpu.data     0.003337                       # mshr miss ratio for demand accesses (Ratio)
system.cpu.dcache.demandMshrMissRate::total     0.003337                       # mshr miss ratio for demand accesses (Ratio)
system.cpu.dcache.overallMshrMissRate::cpu.data     0.003337                       # mshr miss ratio for overall accesses (Ratio)
system.cpu.dcache.overallMshrMissRate::total     0.003337                       # mshr miss ratio for overall accesses (Ratio)
system.cpu.dcache.demandAvgMshrMissLatency::cpu.data 77859.951336                       # average overall mshr miss latency ((Cycle/Count))
system.cpu.dcache.demandAvgMshrMissLatency::total 77859.951336                       # average overall mshr miss latency ((Cycle/Count))
system.cpu.dcache.overallAvgMshrMissLatency::cpu.data 77859.951336                       # average overall mshr miss latency ((Cycle/Count))
system.cpu.dcache.overallAvgMshrMissLatency::total 77859.951336                       # average overall mshr miss latency ((Cycle/Count))
system.cpu.dcache.replacements                  17553                       # number of replacements (Count)
system.cpu.dcache.ReadReq.hits::cpu.data      3449667                       # number of ReadReq hits (Count)
system.cpu.dcache.ReadReq.hits::total         3449667                       # number of ReadReq hits (Count)
system.cpu.dcache.ReadReq.misses::cpu.data        15243                       # number of ReadReq misses (Count)
system.cpu.dcache.ReadReq.misses::total         15243                       # number of ReadReq misses (Count)
system.cpu.dcache.ReadReq.missLatency::cpu.data    895751000                       # number of ReadReq miss ticks (Tick)
system.cpu.dcache.ReadReq.missLatency::total    895751000                       # number of ReadReq miss ticks (Tick)
system.cpu.dcache.ReadReq.accesses::cpu.data      3464910                       # number of ReadReq accesses(hits+misses) (Count)
system.cpu.dcache.ReadReq.accesses::total      3464910                       # number of ReadReq accesses(hits+misses) (Count)
system.cpu.dcache.ReadReq.missRate::cpu.data     0.004399                       # miss rate for ReadReq accesses (Ratio)
system.cpu.dcache.ReadReq.missRate::total     0.004399                       # miss rate for ReadReq accesses (Ratio)
system.cpu.dcache.ReadReq.avgMissLatency::cpu.data 58764.744473                       # average ReadReq miss latency ((Tick/Count))
system.cpu.dcache.ReadReq.avgMissLatency::total 58764.744473                       # average ReadReq miss latency ((Tick/Count))
system.cpu.dcache.ReadReq.mshrHits::cpu.data         7707                       # number of ReadReq MSHR hits (Count)
system.cpu.dcache.ReadReq.mshrHits::total         7707                       # number of ReadReq MSHR hits (Count)
system.cpu.dcache.ReadReq.mshrMisses::cpu.data         7536                       # number of ReadReq MSHR misses (Count)
system.cpu.dcache.ReadReq.mshrMisses::total         7536                       # number of ReadReq MSHR misses (Count)
system.cpu.dcache.ReadReq.mshrMissLatency::cpu.data    541442000                       # number of ReadReq MSHR miss ticks (Tick)
system.cpu.dcache.ReadReq.mshrMissLatency::total    541442000                       # number of ReadReq MSHR miss ticks (Tick)
system.cpu.dcache.ReadReq.mshrMissRate::cpu.data     0.002175                       # mshr miss rate for ReadReq accesses (Ratio)
system.cpu.dcache.ReadReq.mshrMissRate::total     0.002175                       # mshr miss rate for ReadReq accesses (Ratio)
system.cpu.dcache.ReadReq.avgMshrMissLatency::cpu.data 71847.399151                       # average ReadReq mshr miss latency ((Tick/Count))
system.cpu.dcache.ReadReq.avgMshrMissLatency::total 71847.399151                       # average ReadReq mshr miss latency ((Tick/Count))
system.cpu.dcache.WriteReq.hits::cpu.data      1937391                       # number of WriteReq hits (Count)
system.cpu.dcache.WriteReq.hits::total        1937391                       # number of WriteReq hits (Count)
system.cpu.dcache.WriteReq.misses::cpu.data        16962                       # number of WriteReq misses (Count)
system.cpu.dcache.WriteReq.misses::total        16962                       # number of WriteReq misses (Count)
system.cpu.dcache.WriteReq.missLatency::cpu.data   1239859999                       # number of WriteReq miss ticks (Tick)
system.cpu.dcache.WriteReq.missLatency::total   1239859999                       # number of WriteReq miss ticks (Tick)
system.cpu.dcache.WriteReq.accesses::cpu.data      1954353                       # number of WriteReq accesses(hits+misses) (Count)
system.cpu.dcache.WriteReq.accesses::total      1954353                       # number of WriteReq accesses(hits+misses) (Count)
system.cpu.dcache.WriteReq.missRate::cpu.data     0.008679                       # miss rate for WriteReq accesses (Ratio)
system.cpu.dcache.WriteReq.missRate::total     0.008679                       # miss rate for WriteReq accesses (Ratio)
system.cpu.dcache.WriteReq.avgMissLatency::cpu.data 73096.332921                       # average WriteReq miss latency ((Tick/Count))
system.cpu.dcache.WriteReq.avgMissLatency::total 73096.332921                       # average WriteReq miss latency ((Tick/Count))
system.cpu.dcache.WriteReq.mshrHits::cpu.data         6415                       # number of WriteReq MSHR hits (Count)
system.cpu.dcache.WriteReq.mshrHits::total         6415                       # number of WriteReq MSHR hits (Count)
system.cpu.dcache.WriteReq.mshrMisses::cpu.data        10547                       # number of WriteReq MSHR misses (Count)
system.cpu.dcache.WriteReq.mshrMisses::total        10547                       # number of WriteReq MSHR misses (Count)
system.cpu.dcache.WriteReq.mshrMissLatency::cpu.data    866499500                       # number of WriteReq MSHR miss ticks (Tick)
system.cpu.dcache.WriteReq.mshrMissLatency::total    866499500                       # number of WriteReq MSHR miss ticks (Tick)
system.cpu.dcache.WriteReq.mshrMissRate::cpu.data     0.005397                       # mshr miss rate for WriteReq accesses (Ratio)
system.cpu.dcache.WriteReq.mshrMissRate::total     0.005397                       # mshr miss rate for WriteReq accesses (Ratio)
system.cpu.dcache.WriteReq.avgMshrMissLatency::cpu.data 82156.015929                       # average WriteReq mshr miss latency ((Tick/Count))
system.cpu.dcache.WriteReq.avgMshrMissLatency::total 82156.015929                       # average WriteReq mshr miss latency ((Tick/Count))
system.cpu.dcache.power_state.pwrStateResidencyTicks::UNDEFINED   6557581000                       # Cumulative time (in ticks) in various power states (Tick)
system.cpu.dcache.tags.tagsInUse           504.500863                       # Average ticks per tags in use ((Tick/Count))
system.cpu.dcache.tags.totalRefs              5405150                       # Total number of references to valid blocks. (Count)
system.cpu.dcache.tags.sampledRefs              18065                       # Sample count of references to valid blocks. (Count)
system.cpu.dcache.tags.avgRefs             299.205646                       # Average number of references to valid blocks. ((Count/Count))
system.cpu.dcache.tags.warmupTick              176500                       # The tick when the warmup percentage was hit. (Tick)
system.cpu.dcache.tags.occupancies::cpu.data   504.500863                       # Average occupied blocks per tick, per requestor ((Count/Tick))
system.cpu.dcache.tags.avgOccs::cpu.data     0.985353                       # Average percentage of cache occupancy ((Ratio/Tick))
system.cpu.dcache.tags.avgOccs::total        0.985353                       # Average percentage of cache occupancy ((Ratio/Tick))
system.cpu.dcache.tags.occupanciesTaskId::1024          512                       # Occupied blocks per task id (Count)
system.cpu.dcache.tags.ageTaskId_1024::0           28                       # Occupied blocks per task id, per block age (Count)
system.cpu.dcache.tags.ageTaskId_1024::1          247                       # Occupied blocks per task id, per block age (Count)
system.cpu.dcache.tags.ageTaskId_1024::2          202                       # Occupied blocks per task id, per block age (Count)
system.cpu.dcache.tags.ageTaskId_1024::3           35                       # Occupied blocks per task id, per block age (Count)
system.cpu.dcache.tags.ratioOccsTaskId::1024            1                       # Ratio of occupied blocks and all blocks, per task id (Ratio)
system.cpu.dcache.tags.tagAccesses           21695117                       # Number of tag accesses (Count)
system.cpu.dcache.tags.dataAccesses          21695117                       # Number of data accesses (Count)
system.cpu.dcache.tags.power_state.pwrStateResidencyTicks::UNDEFINED   6557581000                       # Cumulative time (in ticks) in various power states (Tick)
system.cpu.decode.idleCycles                  2597799                       # Number of cycles decode is idle (Cycle)
system.cpu.decode.blockedCycles               4491993                       # Number of cycles decode is blocked (Cycle)
system.cpu.decode.runCycles                   5124763                       # Number of cycles decode is running (Cycle)
system.cpu.decode.unblockCycles                455762                       # Number of cycles decode is unblocking (Cycle)
system.cpu.decode.squashCycles                 405728                       # Number of cycles decode is squashing (Cycle)
system.cpu.decode.branchResolved              1115386                       # Number of times decode resolved a branch (Count)
system.cpu.decode.branchMispred                 21161                       # Number of times decode detected a branch misprediction (Count)
system.cpu.decode.decodedInsts               38486606                       # Number of instructions handled by decode (Count)
system.cpu.decode.squashedInsts                 22452                       # Number of squashed instructions handled by decode (Count)
system.cpu.dtb_walker_cache.blockedCycles::no_mshrs            0                       # number of cycles access was blocked (Cycle)
system.cpu.dtb_walker_cache.blockedCycles::no_targets            0                       # number of cycles access was blocked (Cycle)
system.cpu.dtb_walker_cache.blockedCauses::no_mshrs            0                       # number of times access was blocked (Count)
system.cpu.dtb_walker_cache.blockedCauses::no_targets            0                       # number of times access was blocked (Count)
system.cpu.dtb_walker_cache.avgBlocked::no_mshrs          nan                       # average number of cycles each access was blocked ((Cycle/Count))
system.cpu.dtb_walker_cache.avgBlocked::no_targets          nan                       # average number of cycles each access was blocked ((Cycle/Count))
system.cpu.dtb_walker_cache.replacements            0                       # number of replacements (Count)
system.cpu.dtb_walker_cache.power_state.pwrStateResidencyTicks::UNDEFINED   6557581000                       # Cumulative time (in ticks) in various power states (Tick)
system.cpu.dtb_walker_cache.tags.tagsInUse            0                       # Average ticks per tags in use ((Tick/Count))
system.cpu.dtb_walker_cache.tags.totalRefs            0                       # Total number of references to valid blocks. (Count)
system.cpu.dtb_walker_cache.tags.sampledRefs            0                       # Sample count of references to valid blocks. (Count)
system.cpu.dtb_walker_cache.tags.avgRefs          nan                       # Average number of references to valid blocks. ((Count/Count))
system.cpu.dtb_walker_cache.tags.warmupTick            0                       # The tick when the warmup percentage was hit. (Tick)
system.cpu.dtb_walker_cache.tags.tagAccesses            0                       # Number of tag accesses (Count)
system.cpu.dtb_walker_cache.tags.dataAccesses            0                       # Number of data accesses (Count)
system.cpu.dtb_walker_cache.tags.power_state.pwrStateResidencyTicks::UNDEFINED   6557581000                       # Cumulative time (in ticks) in various power states (Tick)
system.cpu.fetch.icacheStallCycles            3187668                       # Number of cycles fetch is stalled on an Icache miss (Cycle)
system.cpu.fetch.insts                       21487975                       # Number of instructions fetch has processed (Count)
system.cpu.fetch.branches                     4835361                       # Number of branches that fetch encountered (Count)
system.cpu.fetch.predictedBranches            1627478                       # Number of branches that fetch has predicted taken (Count)
system.cpu.fetch.cycles                       9460482                       # Number of cycles fetch has run and was not squashing or blocked (Cycle)
system.cpu.fetch.squashCycles                  853698                       # Number of cycles fetch has spent squashing (Cycle)
system.cpu.fetch.miscStallCycles                   93                       # Number of cycles fetch has spent waiting on interrupts, or bad addresses, or out of MSHRs (Cycle)
system.cpu.fetch.pendingTrapStallCycles           796                       # Number of stall cycles due to pending traps (Cycle)
system.cpu.fetch.pendingQuiesceStallCycles          157                       # Number of stall cycles due to pending quiesce instructions (Cycle)
system.cpu.fetch.cacheLines                   2868044                       # Number of cache lines fetched (Count)
system.cpu.fetch.icacheSquashes                 78980                       # Number of outstanding Icache misses that were squashed (Count)
system.cpu.fetch.nisnDist::samples           13076045                       # Number of instructions fetched each cycle (Total) (Count)
system.cpu.fetch.nisnDist::mean              3.147380                       # Number of instructions fetched each cycle (Total) (Count)
system.cpu.fetch.nisnDist::stdev             3.640942                       # Number of instructions fetched each cycle (Total) (Count)
system.cpu.fetch.nisnDist::underflows               0      0.00%      0.00% # Number of instructions fetched each cycle (Total) (Count)
system.cpu.fetch.nisnDist::0                  6763148     51.72%     51.72% # Number of instructions fetched each cycle (Total) (Count)
system.cpu.fetch.nisnDist::1                   444990      3.40%     55.12% # Number of instructions fetched each cycle (Total) (Count)
system.cpu.fetch.nisnDist::2                   267944      2.05%     57.17% # Number of instructions fetched each cycle (Total) (Count)
system.cpu.fetch.nisnDist::3                   287469      2.20%     59.37% # Number of instructions fetched each cycle (Total) (Count)
system.cpu.fetch.nisnDist::4                   287705      2.20%     61.57% # Number of instructions fetched each cycle (Total) (Count)
system.cpu.fetch.nisnDist::5                   446987      3.42%     64.99% # Number of instructions fetched each cycle (Total) (Count)
system.cpu.fetch.nisnDist::6                   227383      1.74%     66.73% # Number of instructions fetched each cycle (Total) (Count)
system.cpu.fetch.nisnDist::7                   241412      1.85%     68.58% # Number of instructions fetched each cycle (Total) (Count)
system.cpu.fetch.nisnDist::8                  4109007     31.42%    100.00% # Number of instructions fetched each cycle (Total) (Count)
system.cpu.fetch.nisnDist::overflows                0      0.00%    100.00% # Number of instructions fetched each cycle (Total) (Count)
system.cpu.fetch.nisnDist::min_value                0                       # Number of instructions fetched each cycle (Total) (Count)
system.cpu.fetch.nisnDist::max_value                8                       # Number of instructions fetched each cycle (Total) (Count)
system.cpu.fetch.nisnDist::total             13076045                       # Number of instructions fetched each cycle (Total) (Count)
system.cpu.fetch.branchRate                  0.368685                       # Number of branch fetches per cycle (Ratio)
system.cpu.fetch.rate                        1.638407                       # Number of inst fetches per cycle ((Count/Cycle))
system.cpu.icache.demandHits::cpu.inst        2867359                       # number of demand (read+write) hits (Count)
system.cpu.icache.demandHits::total           2867359                       # number of demand (read+write) hits (Count)
system.cpu.icache.overallHits::cpu.inst       2867359                       # number of overall hits (Count)
system.cpu.icache.overallHits::total          2867359                       # number of overall hits (Count)
system.cpu.icache.demandMisses::cpu.inst          685                       # number of demand (read+write) misses (Count)
system.cpu.icache.demandMisses::total             685                       # number of demand (read+write) misses (Count)
system.cpu.icache.overallMisses::cpu.inst          685                       # number of overall misses (Count)
system.cpu.icache.overallMisses::total            685                       # number of overall misses (Count)
system.cpu.icache.demandMissLatency::cpu.inst     49140500                       # number of demand (read+write) miss ticks (Tick)
system.cpu.icache.demandMissLatency::total     49140500                       # number of demand (read+write) miss ticks (Tick)
system.cpu.icache.overallMissLatency::cpu.inst     49140500                       # number of overall miss ticks (Tick)
system.cpu.icache.overallMissLatency::total     49140500                       # number of overall miss ticks (Tick)
system.cpu.icache.demandAccesses::cpu.inst      2868044                       # number of demand (read+write) accesses (Count)
system.cpu.icache.demandAccesses::total       2868044                       # number of demand (read+write) accesses (Count)
system.cpu.icache.overallAccesses::cpu.inst      2868044                       # number of overall (read+write) accesses (Count)
system.cpu.icache.overallAccesses::total      2868044                       # number of overall (read+write) accesses (Count)
system.cpu.icache.demandMissRate::cpu.inst     0.000239                       # miss rate for demand accesses (Ratio)
system.cpu.icache.demandMissRate::total      0.000239                       # miss rate for demand accesses (Ratio)
system.cpu.icache.overallMissRate::cpu.inst     0.000239                       # miss rate for overall accesses (Ratio)
system.cpu.icache.overallMissRate::total     0.000239                       # miss rate for overall accesses (Ratio)
system.cpu.icache.demandAvgMissLatency::cpu.inst 71737.956204                       # average overall miss latency ((Cycle/Count))
system.cpu.icache.demandAvgMissLatency::total 71737.956204                       # average overall miss latency ((Cycle/Count))
system.cpu.icache.overallAvgMissLatency::cpu.inst 71737.956204                       # average overall miss latency ((Cycle/Count))
system.cpu.icache.overallAvgMissLatency::total 71737.956204                       # average overall miss latency ((Cycle/Count))
system.cpu.icache.blockedCycles::no_mshrs          154                       # number of cycles access was blocked (Cycle)
system.cpu.icache.blockedCycles::no_targets            0                       # number of cycles access was blocked (Cycle)
system.cpu.icache.blockedCauses::no_mshrs            3                       # number of times access was blocked (Count)
system.cpu.icache.blockedCauses::no_targets            0                       # number of times access was blocked (Count)
system.cpu.icache.avgBlocked::no_mshrs      51.333333                       # average number of cycles each access was blocked ((Cycle/Count))
system.cpu.icache.avgBlocked::no_targets          nan                       # average number of cycles each access was blocked ((Cycle/Count))
system.cpu.icache.writebacks::writebacks           68                       # number of writebacks (Count)
system.cpu.icache.writebacks::total                68                       # number of writebacks (Count)
system.cpu.icache.demandMshrHits::cpu.inst          171                       # number of demand (read+write) MSHR hits (Count)
system.cpu.icache.demandMshrHits::total           171                       # number of demand (read+write) MSHR hits (Count)
system.cpu.icache.overallMshrHits::cpu.inst          171                       # number of overall MSHR hits (Count)
system.cpu.icache.overallMshrHits::total          171                       # number of overall MSHR hits (Count)
system.cpu.icache.demandMshrMisses::cpu.inst          514                       # number of demand (read+write) MSHR misses (Count)
system.cpu.icache.demandMshrMisses::total          514                       # number of demand (read+write) MSHR misses (Count)
system.cpu.icache.overallMshrMisses::cpu.inst          514                       # number of overall MSHR misses (Count)
system.cpu.icache.overallMshrMisses::total          514                       # number of overall MSHR misses (Count)
system.cpu.icache.demandMshrMissLatency::cpu.inst     38814500                       # number of demand (read+write) MSHR miss ticks (Tick)
system.cpu.icache.demandMshrMissLatency::total     38814500                       # number of demand (read+write) MSHR miss ticks (Tick)
system.cpu.icache.overallMshrMissLatency::cpu.inst     38814500                       # number of overall MSHR miss ticks (Tick)
system.cpu.icache.overallMshrMissLatency::total     38814500                       # number of overall MSHR miss ticks (Tick)
system.cpu.icache.demandMshrMissRate::cpu.inst     0.000179                       # mshr miss ratio for demand accesses (Ratio)
system.cpu.icache.demandMshrMissRate::total     0.000179                       # mshr miss ratio for demand accesses (Ratio)
system.cpu.icache.overallMshrMissRate::cpu.inst     0.000179                       # mshr miss ratio for overall accesses (Ratio)
system.cpu.icache.overallMshrMissRate::total     0.000179                       # mshr miss ratio for overall accesses (Ratio)
system.cpu.icache.demandAvgMshrMissLatency::cpu.inst 75514.591440                       # average overall mshr miss latency ((Cycle/Count))
system.cpu.icache.demandAvgMshrMissLatency::total 75514.591440                       # average overall mshr miss latency ((Cycle/Count))
system.cpu.icache.overallAvgMshrMissLatency::cpu.inst 75514.591440                       # average overall mshr miss latency ((Cycle/Count))
system.cpu.icache.overallAvgMshrMissLatency::total 75514.591440                       # average overall mshr miss latency ((Cycle/Count))
system.cpu.icache.replacements                     68                       # number of replacements (Count)
system.cpu.icache.ReadReq.hits::cpu.inst      2867359                       # number of ReadReq hits (Count)
system.cpu.icache.ReadReq.hits::total         2867359                       # number of ReadReq hits (Count)
system.cpu.icache.ReadReq.misses::cpu.inst          685                       # number of ReadReq misses (Count)
system.cpu.icache.ReadReq.misses::total           685                       # number of ReadReq misses (Count)
system.cpu.icache.ReadReq.missLatency::cpu.inst     49140500                       # number of ReadReq miss ticks (Tick)
system.cpu.icache.ReadReq.missLatency::total     49140500                       # number of ReadReq miss ticks (Tick)
system.cpu.icache.ReadReq.accesses::cpu.inst      2868044                       # number of ReadReq accesses(hits+misses) (Count)
system.cpu.icache.ReadReq.accesses::total      2868044                       # number of ReadReq accesses(hits+misses) (Count)
system.cpu.icache.ReadReq.missRate::cpu.inst     0.000239                       # miss rate for ReadReq accesses (Ratio)
system.cpu.icache.ReadReq.missRate::total     0.000239                       # miss rate for ReadReq accesses (Ratio)
system.cpu.icache.ReadReq.avgMissLatency::cpu.inst 71737.956204                       # average ReadReq miss latency ((Tick/Count))
system.cpu.icache.ReadReq.avgMissLatency::total 71737.956204                       # average ReadReq miss latency ((Tick/Count))
system.cpu.icache.ReadReq.mshrHits::cpu.inst          171                       # number of ReadReq MSHR hits (Count)
system.cpu.icache.ReadReq.mshrHits::total          171                       # number of ReadReq MSHR hits (Count)
system.cpu.icache.ReadReq.mshrMisses::cpu.inst          514                       # number of ReadReq MSHR misses (Count)
system.cpu.icache.ReadReq.mshrMisses::total          514                       # number of ReadReq MSHR misses (Count)
system.cpu.icache.ReadReq.mshrMissLatency::cpu.inst     38814500                       # number of ReadReq MSHR miss ticks (Tick)
system.cpu.icache.ReadReq.mshrMissLatency::total     38814500                       # number of ReadReq MSHR miss ticks (Tick)
system.cpu.icache.ReadReq.mshrMissRate::cpu.inst     0.000179                       # mshr miss rate for ReadReq accesses (Ratio)
system.cpu.icache.ReadReq.mshrMissRate::total     0.000179                       # mshr miss rate for ReadReq accesses (Ratio)
system.cpu.icache.ReadReq.avgMshrMissLatency::cpu.inst 75514.591440                       # average ReadReq mshr miss latency ((Tick/Count))
system.cpu.icache.ReadReq.avgMshrMissLatency::total 75514.591440                       # average ReadReq mshr miss latency ((Tick/Count))
system.cpu.icache.power_state.pwrStateResidencyTicks::UNDEFINED   6557581000                       # Cumulative time (in ticks) in various power states (Tick)
system.cpu.icache.tags.tagsInUse           426.674303                       # Average ticks per tags in use ((Tick/Count))
system.cpu.icache.tags.totalRefs              2867873                       # Total number of references to valid blocks. (Count)
system.cpu.icache.tags.sampledRefs                514                       # Sample count of references to valid blocks. (Count)
system.cpu.icache.tags.avgRefs            5579.519455                       # Average number of references to valid blocks. ((Count/Count))
system.cpu.icache.tags.warmupTick               87500                       # The tick when the warmup percentage was hit. (Tick)
system.cpu.icache.tags.occupancies::cpu.inst   426.674303                       # Average occupied blocks per tick, per requestor ((Count/Tick))
system.cpu.icache.tags.avgOccs::cpu.inst     0.833348                       # Average percentage of cache occupancy ((Ratio/Tick))
system.cpu.icache.tags.avgOccs::total        0.833348                       # Average percentage of cache occupancy ((Ratio/Tick))
system.cpu.icache.tags.occupanciesTaskId::1024          428                       # Occupied blocks per task id (Count)
system.cpu.icache.tags.ageTaskId_1024::3          428                       # Occupied blocks per task id, per block age (Count)
system.cpu.icache.tags.ratioOccsTaskId::1024     0.835938                       # Ratio of occupied blocks and all blocks, per task id (Ratio)
system.cpu.icache.tags.tagAccesses           11472690                       # Number of tag accesses (Count)
system.cpu.icache.tags.dataAccesses          11472690                       # Number of data accesses (Count)
system.cpu.icache.tags.power_state.pwrStateResidencyTicks::UNDEFINED   6557581000                       # Cumulative time (in ticks) in various power states (Tick)
system.cpu.interrupts.clk_domain.clock           8000                       # Clock period in ticks (Tick)
system.cpu.itb_walker_cache.blockedCycles::no_mshrs            0                       # number of cycles access was blocked (Cycle)
system.cpu.itb_walker_cache.blockedCycles::no_targets            0                       # number of cycles access was blocked (Cycle)
system.cpu.itb_walker_cache.blockedCauses::no_mshrs            0                       # number of times access was blocked (Count)
system.cpu.itb_walker_cache.blockedCauses::no_targets            0                       # number of times access was blocked (Count)
system.cpu.itb_walker_cache.avgBlocked::no_mshrs          nan                       # average number of cycles each access was blocked ((Cycle/Count))
system.cpu.itb_walker_cache.avgBlocked::no_targets          nan                       # average number of cycles each access was blocked ((Cycle/Count))
system.cpu.itb_walker_cache.replacements            0                       # number of replacements (Count)
system.cpu.itb_walker_cache.power_state.pwrStateResidencyTicks::UNDEFINED   6557581000                       # Cumulative time (in ticks) in various power states (Tick)
system.cpu.itb_walker_cache.tags.tagsInUse            0                       # Average ticks per tags in use ((Tick/Count))
system.cpu.itb_walker_cache.tags.totalRefs            0                       # Total number of references to valid blocks. (Count)
system.cpu.itb_walker_cache.tags.sampledRefs            0                       # Sample count of references to valid blocks. (Count)
system.cpu.itb_walker_cache.tags.avgRefs          nan                       # Average number of references to valid blocks. ((Count/Count))
system.cpu.itb_walker_cache.tags.warmupTick            0                       # The tick when the warmup percentage was hit. (Tick)
system.cpu.itb_walker_cache.tags.tagAccesses            0                       # Number of tag accesses (Count)
system.cpu.itb_walker_cache.tags.dataAccesses            0                       # Number of data accesses (Count)
system.cpu.itb_walker_cache.tags.power_state.pwrStateResidencyTicks::UNDEFINED   6557581000                       # Cumulative time (in ticks) in various power states (Tick)
system.cpu.lsq0.forwLoads                     1008870                       # Number of loads that had data forwarded from stores (Count)
system.cpu.lsq0.squashedLoads                 2774116                       # Number of loads squashed (Count)
system.cpu.lsq0.ignoredResponses                21283                       # Number of memory responses ignored because the instruction is squashed (Count)
system.cpu.lsq0.memOrderViolation                1037                       # Number of memory ordering violations (Count)
system.cpu.lsq0.squashedStores                1623476                       # Number of stores squashed (Count)
system.cpu.lsq0.rescheduledLoads                    0                       # Number of loads that were rescheduled (Count)
system.cpu.lsq0.blockedByCache                      4                       # Number of times an access to memory failed due to the cache being blocked (Count)
system.cpu.lsq0.loadToUse::samples            3058478                       # Distribution of cycle latency between the first time a load is issued and its completion (Unspecified)
system.cpu.lsq0.loadToUse::mean              3.520256                       # Distribution of cycle latency between the first time a load is issued and its completion (Unspecified)
system.cpu.lsq0.loadToUse::stdev             9.438585                       # Distribution of cycle latency between the first time a load is issued and its completion (Unspecified)
system.cpu.lsq0.loadToUse::0-9                3048419     99.67%     99.67% # Distribution of cycle latency between the first time a load is issued and its completion (Unspecified)
system.cpu.lsq0.loadToUse::10-19                  218      0.01%     99.68% # Distribution of cycle latency between the first time a load is issued and its completion (Unspecified)
system.cpu.lsq0.loadToUse::20-29                   71      0.00%     99.68% # Distribution of cycle latency between the first time a load is issued and its completion (Unspecified)
system.cpu.lsq0.loadToUse::30-39                   28      0.00%     99.68% # Distribution of cycle latency between the first time a load is issued and its completion (Unspecified)
system.cpu.lsq0.loadToUse::40-49                    3      0.00%     99.68% # Distribution of cycle latency between the first time a load is issued and its completion (Unspecified)
system.cpu.lsq0.loadToUse::50-59                   45      0.00%     99.68% # Distribution of cycle latency between the first time a load is issued and its completion (Unspecified)
system.cpu.lsq0.loadToUse::80-89                    2      0.00%     99.68% # Distribution of cycle latency between the first time a load is issued and its completion (Unspecified)
system.cpu.lsq0.loadToUse::90-99                    1      0.00%     99.68% # Distribution of cycle latency between the first time a load is issued and its completion (Unspecified)
system.cpu.lsq0.loadToUse::100-109                 32      0.00%     99.68% # Distribution of cycle latency between the first time a load is issued and its completion (Unspecified)
system.cpu.lsq0.loadToUse::110-119                 34      0.00%     99.69% # Distribution of cycle latency between the first time a load is issued and its completion (Unspecified)
[...]
system.mem_ctrls.dram.perBankWrBursts::15          852                       # Per bank write bursts (Count)
system.mem_ctrls.dram.totQLat               174664000                       # Total ticks spent queuing (Tick)
system.mem_ctrls.dram.totBusLat              88360000                       # Total ticks spent in databus transfers (Tick)
system.mem_ctrls.dram.totMemAccLat          506014000                       # Total ticks spent from burst creation until serviced by the DRAM (Tick)
system.mem_ctrls.dram.avgQLat                 9883.66                       # Average queueing delay per DRAM burst ((Tick/Count))
system.mem_ctrls.dram.avgBusLat               5000.00                       # Average bus latency per DRAM burst ((Tick/Count))
system.mem_ctrls.dram.avgMemAccLat           28633.66                       # Average memory access latency per DRAM burst ((Tick/Count))
system.mem_ctrls.dram.readRowHits               14719                       # Number of row buffer hits during reads (Count)
system.mem_ctrls.dram.writeRowHits              11463                       # Number of row buffer hits during writes (Count)
system.mem_ctrls.dram.readRowHitRate            83.29                       # Row buffer hit rate for reads (Ratio)
system.mem_ctrls.dram.writeRowHitRate           88.21                       # Row buffer hit rate for writes (Ratio)
system.mem_ctrls.dram.bytesPerActivate::samples         4483                       # Bytes accessed per row activation (Byte)
system.mem_ctrls.dram.bytesPerActivate::mean   437.763997                       # Bytes accessed per row activation (Byte)
system.mem_ctrls.dram.bytesPerActivate::gmean   317.858167                       # Bytes accessed per row activation (Byte)
system.mem_ctrls.dram.bytesPerActivate::stdev   307.736561                       # Bytes accessed per row activation (Byte)
system.mem_ctrls.dram.bytesPerActivate::0-127          598     13.34%     13.34% # Bytes accessed per row activation (Byte)
system.mem_ctrls.dram.bytesPerActivate::128-255          784     17.49%     30.83% # Bytes accessed per row activation (Byte)
system.mem_ctrls.dram.bytesPerActivate::256-383          879     19.61%     50.43% # Bytes accessed per row activation (Byte)
system.mem_ctrls.dram.bytesPerActivate::384-511          513     11.44%     61.88% # Bytes accessed per row activation (Byte)
system.mem_ctrls.dram.bytesPerActivate::512-639          394      8.79%     70.67% # Bytes accessed per row activation (Byte)
system.mem_ctrls.dram.bytesPerActivate::640-767          366      8.16%     78.83% # Bytes accessed per row activation (Byte)
system.mem_ctrls.dram.bytesPerActivate::768-895          282      6.29%     85.12% # Bytes accessed per row activation (Byte)
system.mem_ctrls.dram.bytesPerActivate::896-1023          330      7.36%     92.48% # Bytes accessed per row activation (Byte)
system.mem_ctrls.dram.bytesPerActivate::1024-1151          337      7.52%    100.00% # Bytes accessed per row activation (Byte)
system.mem_ctrls.dram.bytesPerActivate::total         4483                       # Bytes accessed per row activation (Byte)
system.mem_ctrls.dram.bytesRead               1131008                       # Total number of bytes read from DRAM (Byte)
system.mem_ctrls.dram.bytesWritten             831680                       # Total number of bytes written to DRAM (Byte)
system.mem_ctrls.dram.avgRdBW              172.473356                       # Average DRAM read bandwidth in MiBytes/s ((Byte/Second))
system.mem_ctrls.dram.avgWrBW              126.827255                       # Average DRAM write bandwidth in MiBytes/s ((Byte/Second))
system.mem_ctrls.dram.peakBW                 12800.00                       # Theoretical peak bandwidth in MiByte/s ((Byte/Second))
system.mem_ctrls.dram.busUtil                    2.34                       # Data bus utilization in percentage (Ratio)
system.mem_ctrls.dram.busUtilRead                1.35                       # Data bus utilization in percentage for reads (Ratio)
system.mem_ctrls.dram.busUtilWrite               0.99                       # Data bus utilization in percentage for writes (Ratio)
system.mem_ctrls.dram.pageHitRate               85.38                       # Row buffer hit rate, read and write combined (Ratio)
system.mem_ctrls.dram.power_state.pwrStateResidencyTicks::UNDEFINED   6557581000                       # Cumulative time (in ticks) in various power states (Tick)
system.mem_ctrls.dram.rank0.actEnergy        15665160                       # Energy for activate commands per rank (pJ) (Joule)
system.mem_ctrls.dram.rank0.preEnergy         8318640                       # Energy for precharge commands per rank (pJ) (Joule)
system.mem_ctrls.dram.rank0.readEnergy       63274680                       # Energy for read commands per rank (pJ) (Joule)
system.mem_ctrls.dram.rank0.writeEnergy      34645140                       # Energy for write commands per rank (pJ) (Joule)
system.mem_ctrls.dram.rank0.refreshEnergy 517526880.000000                       # Energy for refresh commands per rank (pJ) (Joule)
system.mem_ctrls.dram.rank0.actBackEnergy   1889389260                       # Energy for active background per rank (pJ) (Joule)
system.mem_ctrls.dram.rank0.preBackEnergy    927046560                       # Energy for precharge background per rank (pJ) (Joule)
system.mem_ctrls.dram.rank0.actPowerDownEnergy            0                       # Energy for active power-down per rank (pJ) (Joule)
system.mem_ctrls.dram.rank0.prePowerDownEnergy            0                       # Energy for precharge power-down per rank (pJ) (Joule)
system.mem_ctrls.dram.rank0.selfRefreshEnergy            0                       # Energy for self refresh per rank (pJ) (Joule)
system.mem_ctrls.dram.rank0.totalEnergy    3455866320                       # Total energy per rank (pJ) (Joule)
system.mem_ctrls.dram.rank0.averagePower   527.003223                       # Core power per rank (mW) (Watt)
system.mem_ctrls.dram.rank0.totalIdleTime            0                       # Total Idle time Per DRAM Rank (Tick)
system.mem_ctrls.dram.rank0.pwrStateTime::IDLE   2392745250                       # Time in different power states (Tick)
system.mem_ctrls.dram.rank0.pwrStateTime::REF    218920000                       # Time in different power states (Tick)
system.mem_ctrls.dram.rank0.pwrStateTime::SREF            0                       # Time in different power states (Tick)
system.mem_ctrls.dram.rank0.pwrStateTime::PRE_PDN            0                       # Time in different power states (Tick)
system.mem_ctrls.dram.rank0.pwrStateTime::ACT   3945915750                       # Time in different power states (Tick)
system.mem_ctrls.dram.rank0.pwrStateTime::ACT_PDN            0                       # Time in different power states (Tick)
system.mem_ctrls.dram.rank1.actEnergy        16357740                       # Energy for activate commands per rank (pJ) (Joule)
system.mem_ctrls.dram.rank1.preEnergy         8694345                       # Energy for precharge commands per rank (pJ) (Joule)
system.mem_ctrls.dram.rank1.readEnergy       62903400                       # Energy for read commands per rank (pJ) (Joule)
system.mem_ctrls.dram.rank1.writeEnergy      33188760                       # Energy for write commands per rank (pJ) (Joule)
system.mem_ctrls.dram.rank1.refreshEnergy 517526880.000000                       # Energy for refresh commands per rank (pJ) (Joule)
system.mem_ctrls.dram.rank1.actBackEnergy   1940781600                       # Energy for active background per rank (pJ) (Joule)
system.mem_ctrls.dram.rank1.preBackEnergy    883768800                       # Energy for precharge background per rank (pJ) (Joule)
system.mem_ctrls.dram.rank1.actPowerDownEnergy            0                       # Energy for active power-down per rank (pJ) (Joule)
system.mem_ctrls.dram.rank1.prePowerDownEnergy            0                       # Energy for precharge power-down per rank (pJ) (Joule)
system.mem_ctrls.dram.rank1.selfRefreshEnergy            0                       # Energy for self refresh per rank (pJ) (Joule)
system.mem_ctrls.dram.rank1.totalEnergy    3463221525                       # Total energy per rank (pJ) (Joule)
system.mem_ctrls.dram.rank1.averagePower   528.124857                       # Core power per rank (mW) (Watt)
system.mem_ctrls.dram.rank1.totalIdleTime            0                       # Total Idle time Per DRAM Rank (Tick)
system.mem_ctrls.dram.rank1.pwrStateTime::IDLE   2279387000                       # Time in different power states (Tick)
system.mem_ctrls.dram.rank1.pwrStateTime::REF    218920000                       # Time in different power states (Tick)
system.mem_ctrls.dram.rank1.pwrStateTime::SREF            0                       # Time in different power states (Tick)
system.mem_ctrls.dram.rank1.pwrStateTime::PRE_PDN            0                       # Time in different power states (Tick)
system.mem_ctrls.dram.rank1.pwrStateTime::ACT   4059274000                       # Time in different power states (Tick)
system.mem_ctrls.dram.rank1.pwrStateTime::ACT_PDN            0                       # Time in different power states (Tick)
system.mem_ctrls.power_state.pwrStateResidencyTicks::UNDEFINED   6557581000                       # Cumulative time (in ticks) in various power states (Tick)
system.membus.transDist::ReadResp                6524                       # Transaction distribution (Count)
system.membus.transDist::WritebackDirty         13017                       # Transaction distribution (Count)
system.membus.transDist::CleanEvict                96                       # Transaction distribution (Count)
system.membus.transDist::UpgradeReq                 1                       # Transaction distribution (Count)
system.membus.transDist::ReadExReq              11148                       # Transaction distribution (Count)
system.membus.transDist::ReadExResp             11148                       # Transaction distribution (Count)
system.membus.transDist::ReadSharedReq           6524                       # Transaction distribution (Count)
system.membus.pktCount_system.l2.mem_side_port::system.mem_ctrls.port        48458                       # Packet count per connected requestor and responder (Count)
system.membus.pktCount_system.l2.mem_side_port::total        48458                       # Packet count per connected requestor and responder (Count)
system.membus.pktCount::total                   48458                       # Packet count per connected requestor and responder (Count)
system.membus.pktSize_system.l2.mem_side_port::system.mem_ctrls.port      1964096                       # Cumulative packet size per connected requestor and responder (Byte)
system.membus.pktSize_system.l2.mem_side_port::total      1964096                       # Cumulative packet size per connected requestor and responder (Byte)
system.membus.pktSize::total                  1964096                       # Cumulative packet size per connected requestor and responder (Byte)
system.membus.snoops                                0                       # Total snoops (Count)
system.membus.snoopTraffic                          0                       # Total snoop traffic (Byte)
system.membus.snoopFanout::samples              17673                       # Request fanout histogram (Count)
system.membus.snoopFanout::mean                     0                       # Request fanout histogram (Count)
system.membus.snoopFanout::stdev                    0                       # Request fanout histogram (Count)
system.membus.snoopFanout::underflows               0      0.00%      0.00% # Request fanout histogram (Count)
system.membus.snoopFanout::0                    17673    100.00%    100.00% # Request fanout histogram (Count)
system.membus.snoopFanout::1                        0      0.00%    100.00% # Request fanout histogram (Count)
system.membus.snoopFanout::overflows                0      0.00%    100.00% # Request fanout histogram (Count)
system.membus.snoopFanout::min_value                0                       # Request fanout histogram (Count)
system.membus.snoopFanout::max_value                0                       # Request fanout histogram (Count)
system.membus.snoopFanout::total                17673                       # Request fanout histogram (Count)
system.membus.power_state.pwrStateResidencyTicks::UNDEFINED   6557581000                       # Cumulative time (in ticks) in various power states (Tick)
system.membus.reqLayer2.occupancy            88254500                       # Layer occupancy (ticks) (Tick)
system.membus.reqLayer2.utilization               0.0                       # Layer utilization (Ratio)
system.membus.respLayer1.occupancy           93318500                       # Layer occupancy (ticks) (Tick)
system.membus.respLayer1.utilization              0.0                       # Layer utilization (Ratio)
system.membus.snoop_filter.totRequests          30786                       # Total number of requests made to the snoop filter. (Count)
system.membus.snoop_filter.hitSingleRequests        13114                       # Number of requests hitting in the snoop filter with a single holder of the requested data. (Count)
system.membus.snoop_filter.hitMultiRequests            0                       # Number of requests hitting in the snoop filter with multiple (>1) holders of the requested data. (Count)
system.membus.snoop_filter.totSnoops                0                       # Total number of snoops made to the snoop filter. (Count)
system.membus.snoop_filter.hitSingleSnoops            0                       # Number of snoops hitting in the snoop filter with a single holder of the requested data. (Count)
system.membus.snoop_filter.hitMultiSnoops            0                       # Number of snoops hitting in the snoop filter with multiple (>1) holders of the requested data. (Count)
system.tol2bus.transDist::ReadResp               7431                       # Transaction distribution (Count)
system.tol2bus.transDist::WritebackDirty        29558                       # Transaction distribution (Count)
system.tol2bus.transDist::WritebackClean           68                       # Transaction distribution (Count)
system.tol2bus.transDist::CleanEvict             1572                       # Transaction distribution (Count)
system.tol2bus.transDist::UpgradeReq               18                       # Transaction distribution (Count)
system.tol2bus.transDist::UpgradeResp              18                       # Transaction distribution (Count)
system.tol2bus.transDist::ReadExReq             11148                       # Transaction distribution (Count)
system.tol2bus.transDist::ReadExResp            11148                       # Transaction distribution (Count)
system.tol2bus.transDist::ReadCleanReq            514                       # Transaction distribution (Count)
system.tol2bus.transDist::ReadSharedReq          6917                       # Transaction distribution (Count)
system.tol2bus.pktCount_system.cpu.icache.mem_side_port::system.l2.cpu_side_port         1078                       # Packet count per connected requestor and responder (Count)
system.tol2bus.pktCount_system.cpu.dcache.mem_side_port::system.l2.cpu_side_port        53719                       # Packet count per connected requestor and responder (Count)
system.tol2bus.pktCount::total                  54797                       # Packet count per connected requestor and responder (Count)
system.tol2bus.pktSize_system.cpu.icache.mem_side_port::system.l2.cpu_side_port        36096                       # Cumulative packet size per connected requestor and responder (Byte)
system.tol2bus.pktSize_system.cpu.dcache.mem_side_port::system.l2.cpu_side_port      2214784                       # Cumulative packet size per connected requestor and responder (Byte)
system.tol2bus.pktSize::total                 2250880                       # Cumulative packet size per connected requestor and responder (Byte)
system.tol2bus.snoops                           13595                       # Total snoops (Count)
system.tol2bus.snoopTraffic                    834240                       # Total snoop traffic (Byte)
system.tol2bus.snoopFanout::samples             32174                       # Request fanout histogram (Count)
system.tol2bus.snoopFanout::mean             0.015789                       # Request fanout histogram (Count)
system.tol2bus.snoopFanout::stdev            0.125654                       # Request fanout histogram (Count)
system.tol2bus.snoopFanout::underflows              0      0.00%      0.00% # Request fanout histogram (Count)
system.tol2bus.snoopFanout::0                   31670     98.43%     98.43% # Request fanout histogram (Count)
system.tol2bus.snoopFanout::1                     500      1.55%     99.99% # Request fanout histogram (Count)
system.tol2bus.snoopFanout::2                       4      0.01%    100.00% # Request fanout histogram (Count)
system.tol2bus.snoopFanout::3                       0      0.00%    100.00% # Request fanout histogram (Count)
system.tol2bus.snoopFanout::4                       0      0.00%    100.00% # Request fanout histogram (Count)
system.tol2bus.snoopFanout::overflows               0      0.00%    100.00% # Request fanout histogram (Count)
system.tol2bus.snoopFanout::min_value               0                       # Request fanout histogram (Count)
system.tol2bus.snoopFanout::max_value               2                       # Request fanout histogram (Count)
system.tol2bus.snoopFanout::total               32174                       # Request fanout histogram (Count)
system.tol2bus.power_state.pwrStateResidencyTicks::UNDEFINED   6557581000                       # Cumulative time (in ticks) in various power states (Tick)
system.tol2bus.reqLayer0.occupancy           34718000                       # Layer occupancy (ticks) (Tick)
system.tol2bus.reqLayer0.utilization              0.0                       # Layer utilization (Ratio)
system.tol2bus.respLayer0.occupancy            771000                       # Layer occupancy (ticks) (Tick)
system.tol2bus.respLayer0.utilization             0.0                       # Layer utilization (Ratio)
system.tol2bus.respLayer1.occupancy          27106500                       # Layer occupancy (ticks) (Tick)
system.tol2bus.respLayer1.utilization             0.0                       # Layer utilization (Ratio)
system.tol2bus.snoop_filter.totRequests         36218                       # Total number of requests made to the snoop filter. (Count)
system.tol2bus.snoop_filter.hitSingleRequests        17625                       # Number of requests hitting in the snoop filter with a single holder of the requested data. (Count)
system.tol2bus.snoop_filter.hitMultiRequests           33                       # Number of requests hitting in the snoop filter with multiple (>1) holders of the requested data. (Count)
system.tol2bus.snoop_filter.totSnoops             467                       # Total number of snoops made to the snoop filter. (Count)
system.tol2bus.snoop_filter.hitSingleSnoops          463                       # Number of snoops hitting in the snoop filter with a single holder of the requested data. (Count)
system.tol2bus.snoop_filter.hitMultiSnoops            4                       # Number of snoops hitting in the snoop filter with multiple (>1) holders of the requested data. (Count)
system.voltage_domain.voltage                       1                       # Voltage in Volts (Volt)
system.workload.inst.arm                            0                       # number of arm instructions executed (Count)
system.workload.inst.quiesce                        0                       # number of quiesce instructions executed (Count)

---------- End Simulation Statistics   ----------
