
---------- Begin Simulation Statistics ----------
simSeconds                                   0.006437                       # Number of seconds simulated (Second)
simTicks                                   6437166500                       # Number of ticks simulated (Tick)
finalTick                                  6437166500                       # Number of ticks from beginning of simulation (restored from checkpoints and never reset) (Tick)
simFreq                                  1000000000000                       # The number of ticks per simulated second ((Tick/Second))
hostSeconds                                    449.90                       # Real time elapsed on the host (Second)
hostTickRate                                 14307869                       # The number of ticks simulated per host second (ticks/s) ((Tick/Second))
hostMemory                                     647488                       # Number of bytes of host memory used (Byte)
simInsts                                     10000001                       # Number of instructions simulated (Count)
simOps                                       19249507                       # Number of ops (including micro ops) simulated (Count)
hostInstRate                                    22227                       # Simulator instruction rate (inst/s) ((Count/Second))
hostOpRate                                      42786                       # Simulator op (including micro ops) rate (op/s) ((Count/Second))
system.clk_domain.clock                          1000                       # Clock period in ticks (Tick)
system.cpu.numCycles                         12874335                       # Number of cpu cycles simulated (Cycle)
system.cpu.numWorkItemsStarted                      0                       # Number of work items this cpu started (Count)
system.cpu.numWorkItemsCompleted                    0                       # Number of work items this cpu completed (Count)
system.cpu.instsAdded                        35930673                       # Number of instructions added to the IQ (excludes non-spec) (Count)
system.cpu.nonSpecInstsAdded                    48774                       # Number of non-speculative instructions added to the IQ (Count)
system.cpu.instsIssued                       30026630                       # Number of instructions issued (Count)
system.cpu.squashedInstsIssued                 124815                       # Number of squashed instructions issued (Count)
system.cpu.squashedInstsExamined             16729908                       # Number of squashed instructions iterated over during squash; mainly for profiling (Count)
system.cpu.squashedOperandsExamined          28526956                       # Number of squashed operands that are examined and possibly removed from graph (Count)
system.cpu.squashedNonSpecRemoved               35078                       # Number of squashed non-spec instructions that were removed (Count)
system.cpu.numIssuedDist::samples            12816177                       # Number of insts issued each cycle (Count)
system.cpu.numIssuedDist::mean               2.342869                       # Number of insts issued each cycle (Count)
system.cpu.numIssuedDist::stdev              2.499228                       # Number of insts issued each cycle (Count)
system.cpu.numIssuedDist::underflows                0      0.00%      0.00% # Number of insts issued each cycle (Count)
system.cpu.numIssuedDist::0                   5099574     39.79%     39.79% # Number of insts issued each cycle (Count)
system.cpu.numIssuedDist::1                   1317599     10.28%     50.07% # Number of insts issued each cycle (Count)
system.cpu.numIssuedDist::2                   1059072      8.26%     58.33% # Number of insts issued each cycle (Count)
system.cpu.numIssuedDist::3                   1172947      9.15%     67.49% # Number of insts issued each cycle (Count)
system.cpu.numIssuedDist::4                   1049567      8.19%     75.68% # Number of insts issued each cycle (Count)
system.cpu.numIssuedDist::5                   1179412      9.20%     84.88% # Number of insts issued each cycle (Count)
system.cpu.numIssuedDist::6                    944450      7.37%     92.25% # Number of insts issued each cycle (Count)
system.cpu.numIssuedDist::7                    638430      4.98%     97.23% # Number of insts issued each cycle (Count)
system.cpu.numIssuedDist::8                    355126      2.77%    100.00% # Number of insts issued each cycle (Count)
system.cpu.numIssuedDist::overflows                 0      0.00%    100.00% # Number of insts issued each cycle (Count)
system.cpu.numIssuedDist::min_value                 0                       # Number of insts issued each cycle (Count)
system.cpu.numIssuedDist::max_value                 8                       # Number of insts issued each cycle (Count)
system.cpu.numIssuedDist::total              12816177                       # Number of insts issued each cycle (Count)
system.cpu.statFuBusy::No_OpClass                   0      0.00%      0.00% # attempts to use FU when none available (Count)
system.cpu.statFuBusy::IntAlu                  267240     64.62%     64.62% # attempts to use FU when none available (Count)
system.cpu.statFuBusy::IntMult                      0      0.00%     64.62% # attempts to use FU when none available (Count)
system.cpu.statFuBusy::IntDiv                       0      0.00%     64.62% # attempts to use FU when none available (Count)
system.cpu.statFuBusy::FloatAdd                     0      0.00%     64.62% # attempts to use FU when none available (Count)
system.cpu.statFuBusy::FloatCmp                     0      0.00%     64.62% # attempts to use FU when none available (Count)
system.cpu.statFuBusy::FloatCvt                     0      0.00%     64.62% # attempts to use FU when none available (Count)
system.cpu.statFuBusy::FloatMult                    0      0.00%     64.62% # attempts to use FU when none available (Count)
system.cpu.statFuBusy::FloatMultAcc                 0      0.00%     64.62% # attempts to use FU when none available (Count)
system.cpu.statFuBusy::FloatDiv                     0      0.00%     64.62% # attempts to use FU when none available (Count)
system.cpu.statFuBusy::FloatMisc                    0      0.00%     64.62% # attempts to use FU when none available (Count)
system.cpu.statFuBusy::FloatSqrt                    0      0.00%     64.62% # attempts to use FU when none available (Count)
system.cpu.statFuBusy::SimdAdd                      0      0.00%     64.62% # attempts to use FU when none available (Count)
system.cpu.statFuBusy::SimdAddAcc                   0      0.00%     64.62% # attempts to use FU when none available (Count)
system.cpu.statFuBusy::SimdAlu                      0      0.00%     64.62% # attempts to use FU when none available (Count)
system.cpu.statFuBusy::SimdCmp                      0      0.00%     64.62% # attempts to use FU when none available (Count)
system.cpu.statFuBusy::SimdCvt                      0      0.00%     64.62% # attempts to use FU when none available (Count)
system.cpu.statFuBusy::SimdMisc                     0      0.00%     64.62% # attempts to use FU when none available (Count)
system.cpu.statFuBusy::SimdMult                     0      0.00%     64.62% # attempts to use FU when none available (Count)
system.cpu.statFuBusy::SimdMultAcc                  0      0.00%     64.62% # attempts to use FU when none available (Count)
system.cpu.statFuBusy::SimdShift                    0      0.00%     64.62% # attempts to use FU when none available (Count)
system.cpu.statFuBusy::SimdShiftAcc                 0      0.00%     64.62% # attempts to use FU when none available (Count)
system.cpu.statFuBusy::SimdDiv                      0      0.00%     64.62% # attempts to use FU when none available (Count)
system.cpu.statFuBusy::SimdSqrt                     0      0.00%     64.62% # attempts to use FU when none available (Count)
system.cpu.statFuBusy::SimdFloatAdd                 0      0.00%     64.62% # attempts to use FU when none available (Count)
system.cpu.statFuBusy::SimdFloatAlu                 0      0.00%     64.62% # attempts to use FU when none available (Count)
system.cpu.statFuBusy::SimdFloatCmp                 0      0.00%     64.62% # attempts to use FU when none available (Count)
system.cpu.statFuBusy::SimdFloatCvt                 0      0.00%     64.62% # attempts to use FU when none available (Count)
system.cpu.statFuBusy::SimdFloatDiv                 0      0.00%     64.62% # attempts to use FU when none available (Count)
system.cpu.statFuBusy::SimdFloatMisc                0      0.00%     64.62% # attempts to use FU when none available (Count)
system.cpu.statFuBusy::SimdFloatMult                0      0.00%     64.62% # attempts to use FU when none available (Count)
system.cpu.statFuBusy::SimdFloatMultAcc             0      0.00%     64.62% # attempts to use FU when none available (Count)
system.cpu.statFuBusy::SimdFloatSqrt                0      0.00%     64.62% # attempts to use FU when none available (Count)
system.cpu.statFuBusy::SimdReduceAdd                0      0.00%     64.62% # attempts to use FU when none available (Count)
system.cpu.statFuBusy::SimdReduceAlu                0      0.00%     64.62% # attempts to use FU when none available (Count)
system.cpu.statFuBusy::SimdReduceCmp                0      0.00%     64.62% # attempts to use FU when none available (Count)
system.cpu.statFuBusy::SimdFloatReduceAdd            0      0.00%     64.62% # attempts to use FU when none available (Count)
system.cpu.statFuBusy::SimdFloatReduceCmp            0      0.00%     64.62% # attempts to use FU when none available (Count)
system.cpu.statFuBusy::SimdAes                      0      0.00%     64.62% # attempts to use FU when none available (Count)
system.cpu.statFuBusy::SimdAesMix                   0      0.00%     64.62% # attempts to use FU when none available (Count)
system.cpu.statFuBusy::SimdSha1Hash                 0      0.00%     64.62% # attempts to use FU when none available (Count)
system.cpu.statFuBusy::SimdSha1Hash2                0      0.00%     64.62% # attempts to use FU when none available (Count)
system.cpu.statFuBusy::SimdSha256Hash               0      0.00%     64.62% # attempts to use FU when none available (Count)
system.cpu.statFuBusy::SimdSha256Hash2              0      0.00%     64.62% # attempts to use FU when none available (Count)
system.cpu.statFuBusy::SimdShaSigma2                0      0.00%     64.62% # attempts to use FU when none available (Count)
system.cpu.statFuBusy::SimdShaSigma3                0      0.00%     64.62% # attempts to use FU when none available (Count)
system.cpu.statFuBusy::SimdPredAlu                  0      0.00%     64.62% # attempts to use FU when none available (Count)
system.cpu.statFuBusy::MemRead                  82063     19.84%     84.46% # attempts to use FU when none available (Count)
system.cpu.statFuBusy::MemWrite                 62975     15.23%     99.69% # attempts to use FU when none available (Count)
system.cpu.statFuBusy::FloatMemRead              1287      0.31%    100.00% # attempts to use FU when none available (Count)
system.cpu.statFuBusy::FloatMemWrite                6      0.00%    100.00% # attempts to use FU when none available (Count)
system.cpu.statFuBusy::IprAccess                    0      0.00%    100.00% # attempts to use FU when none available (Count)
system.cpu.statFuBusy::InstPrefetch                 0      0.00%    100.00% # attempts to use FU when none available (Count)
system.cpu.statIssuedInstType_0::No_OpClass        93098      0.31%      0.31% # Number of instructions issued per FU type, per thread (Count)
system.cpu.statIssuedInstType_0::IntAlu      21664971     72.15%     72.46% # Number of instructions issued per FU type, per thread (Count)
system.cpu.statIssuedInstType_0::IntMult        15842      0.05%     72.52% # Number of instructions issued per FU type, per thread (Count)
system.cpu.statIssuedInstType_0::IntDiv        203129      0.68%     73.19% # Number of instructions issued per FU type, per thread (Count)
system.cpu.statIssuedInstType_0::FloatAdd        14845      0.05%     73.24% # Number of instructions issued per FU type, per thread (Count)
system.cpu.statIssuedInstType_0::FloatCmp            6      0.00%     73.24% # Number of instructions issued per FU type, per thread (Count)
system.cpu.statIssuedInstType_0::FloatCvt            0      0.00%     73.24% # Number of instructions issued per FU type, per thread (Count)
system.cpu.statIssuedInstType_0::FloatMult           47      0.00%     73.24% # Number of instructions issued per FU type, per thread (Count)
system.cpu.statIssuedInstType_0::FloatMultAcc            0      0.00%     73.24% # Number of instructions issued per FU type, per thread (Count)
system.cpu.statIssuedInstType_0::FloatDiv           12      0.00%     73.24% # Number of instructions issued per FU type, per thread (Count)
system.cpu.statIssuedInstType_0::FloatMisc            0      0.00%     73.24% # Number of instructions issued per FU type, per thread (Count)
system.cpu.statIssuedInstType_0::FloatSqrt            0      0.00%     73.24% # Number of instructions issued per FU type, per thread (Count)
system.cpu.statIssuedInstType_0::SimdAdd            0      0.00%     73.24% # Number of instructions issued per FU type, per thread (Count)
system.cpu.statIssuedInstType_0::SimdAddAcc            0      0.00%     73.24% # Number of instructions issued per FU type, per thread (Count)
system.cpu.statIssuedInstType_0::SimdAlu            0      0.00%     73.24% # Number of instructions issued per FU type, per thread (Count)
system.cpu.statIssuedInstType_0::SimdCmp            0      0.00%     73.24% # Number of instructions issued per FU type, per thread (Count)
system.cpu.statIssuedInstType_0::SimdCvt            0      0.00%     73.24% # Number of instructions issued per FU type, per thread (Count)
system.cpu.statIssuedInstType_0::SimdMisc            0      0.00%     73.24% # Number of instructions issued per FU type, per thread (Count)
system.cpu.statIssuedInstType_0::SimdMult            0      0.00%     73.24% # Number of instructions issued per FU type, per thread (Count)
system.cpu.statIssuedInstType_0::SimdMultAcc            0      0.00%     73.24% # Number of instructions issued per FU type, per thread (Count)
system.cpu.statIssuedInstType_0::SimdShift            0      0.00%     73.24% # Number of instructions issued per FU type, per thread (Count)
system.cpu.statIssuedInstType_0::SimdShiftAcc            0      0.00%     73.24% # Number of instructions issued per FU type, per thread (Count)
system.cpu.statIssuedInstType_0::SimdDiv            0      0.00%     73.24% # Number of instructions issued per FU type, per thread (Count)
system.cpu.statIssuedInstType_0::SimdSqrt            0      0.00%     73.24% # Number of instructions issued per FU type, per thread (Count)
system.cpu.statIssuedInstType_0::SimdFloatAdd            0      0.00%     73.24% # Number of instructions issued per FU type, per thread (Count)
system.cpu.statIssuedInstType_0::SimdFloatAlu            0      0.00%     73.24% # Number of instructions issued per FU type, per thread (Count)
system.cpu.statIssuedInstType_0::SimdFloatCmp            0      0.00%     73.24% # Number of instructions issued per FU type, per thread (Count)
system.cpu.statIssuedInstType_0::SimdFloatCvt            0      0.00%     73.24% # Number of instructions issued per FU type, per thread (Count)
system.cpu.statIssuedInstType_0::SimdFloatDiv            0      0.00%     73.24% # Number of instructions issued per FU type, per thread (Count)
system.cpu.statIssuedInstType_0::SimdFloatMisc            0      0.00%     73.24% # Number of instructions issued per FU type, per thread (Count)
system.cpu.statIssuedInstType_0::SimdFloatMult            0      0.00%     73.24% # Number of instructions issued per FU type, per thread (Count)
system.cpu.statIssuedInstType_0::SimdFloatMultAcc            0      0.00%     73.24% # Number of instructions issued per FU type, per thread (Count)
system.cpu.statIssuedInstType_0::SimdFloatSqrt            0      0.00%     73.24% # Number of instructions issued per FU type, per thread (Count)
system.cpu.statIssuedInstType_0::SimdReduceAdd            0      0.00%     73.24% # Number of instructions issued per FU type, per thread (Count)
system.cpu.statIssuedInstType_0::SimdReduceAlu            0      0.00%     73.24% # Number of instructions issued per FU type, per thread (Count)
system.cpu.statIssuedInstType_0::SimdReduceCmp            0      0.00%     73.24% # Number of instructions issued per FU type, per thread (Count)
system.cpu.statIssuedInstType_0::SimdFloatReduceAdd            0      0.00%     73.24% # Number of instructions issued per FU type, per thread (Count)
system.cpu.statIssuedInstType_0::SimdFloatReduceCmp            0      0.00%     73.24% # Number of instructions issued per FU type, per thread (Count)
system.cpu.statIssuedInstType_0::SimdAes            0      0.00%     73.24% # Number of instructions issued per FU type, per thread (Count)
system.cpu.statIssuedInstType_0::SimdAesMix            0      0.00%     73.24% # Number of instructions issued per FU type, per thread (Count)
system.cpu.statIssuedInstType_0::SimdSha1Hash            0      0.00%     73.24% # Number of instructions issued per FU type, per thread (Count)
system.cpu.statIssuedInstType_0::SimdSha1Hash2            0      0.00%     73.24% # Number of instructions issued per FU type, per thread (Count)
system.cpu.statIssuedInstType_0::SimdSha256Hash            0      0.00%     73.24% # Number of instructions issued per FU type, per thread (Count)
system.cpu.statIssuedInstType_0::SimdSha256Hash2            0      0.00%     73.24% # Number of instructions issued per FU type, per thread (Count)
system.cpu.statIssuedInstType_0::SimdShaSigma2            0      0.00%     73.24% # Number of instructions issued per FU type, per thread (Count)
system.cpu.statIssuedInstType_0::SimdShaSigma3            0      0.00%     73.24% # Number of instructions issued per FU type, per thread (Count)
system.cpu.statIssuedInstType_0::SimdPredAlu            0      0.00%     73.24% # Number of instructions issued per FU type, per thread (Count)
system.cpu.statIssuedInstType_0::MemRead      5357206     17.84%     91.08% # Number of instructions issued per FU type, per thread (Count)
system.cpu.statIssuedInstType_0::MemWrite      2616898      8.72%     99.80% # Number of instructions issued per FU type, per thread (Count)
system.cpu.statIssuedInstType_0::FloatMemRead        46900      0.16%     99.95% # Number of instructions issued per FU type, per thread (Count)
system.cpu.statIssuedInstType_0::FloatMemWrite        13676      0.05%    100.00% # Number of instructions issued per FU type, per thread (Count)
system.cpu.statIssuedInstType_0::IprAccess            0      0.00%    100.00% # Number of instructions issued per FU type, per thread (Count)
system.cpu.statIssuedInstType_0::InstPrefetch            0      0.00%    100.00% # Number of instructions issued per FU type, per thread (Count)
system.cpu.statIssuedInstType_0::total       30026630                       # Number of instructions issued per FU type, per thread (Count)
system.cpu.issueRate                         2.332286                       # Inst issue rate ((Count/Cycle))
system.cpu.fuBusy                              413571                       # FU busy when requested (Count)
system.cpu.fuBusyRate                        0.013773                       # FU busy rate (busy events/executed inst) ((Count/Count))
system.cpu.intInstQueueReads                 73200774                       # Number of integer instruction queue reads (Count)
system.cpu.intInstQueueWrites                52538636                       # Number of integer instruction queue writes (Count)
system.cpu.intInstQueueWakeupAccesses        28012690                       # Number of integer instruction queue wakeup accesses (Count)
system.cpu.fpInstQueueReads                    207041                       # Number of floating instruction queue reads (Count)
system.cpu.fpInstQueueWrites                   173011                       # Number of floating instruction queue writes (Count)
system.cpu.fpInstQueueWakeupAccesses            77790                       # Number of floating instruction queue wakeup accesses (Count)
system.cpu.vecInstQueueReads                        0                       # Number of vector instruction queue reads (Count)
system.cpu.vecInstQueueWrites                       0                       # Number of vector instruction queue writes (Count)
system.cpu.vecInstQueueWakeupAccesses               0                       # Number of vector instruction queue wakeup accesses (Count)
system.cpu.intAluAccesses                    30242936                       # Number of integer alu accesses (Count)
system.cpu.fpAluAccesses                       104167                       # Number of floating point alu accesses (Count)
system.cpu.vecAluAccesses                           0                       # Number of vector alu accesses (Count)
system.cpu.idleCycles                               0                       # Number of cycles IEW is idle (Cycle)
system.cpu.squashCycles                        487237                       # Number of cycles IEW is squashing (Cycle)
system.cpu.blockCycles                        2081379                       # Number of cycles IEW is blocking (Cycle)
system.cpu.unblockCycles                       115675                       # Number of cycles IEW is unblocking (Cycle)
system.cpu.dispatchedInsts                   35979447                       # Number of instructions dispatched to IQ (Count)
system.cpu.dispSquashedInsts                    65418                       # Number of squashed instructions skipped by dispatch (Count)
system.cpu.dispLoadInsts                      6071185                       # Number of dispatched load instructions (Count)
system.cpu.dispStoreInsts                     3153721                       # Number of dispatched store instructions (Count)
system.cpu.dispNonSpecInsts                     45335                       # Number of dispatched non-speculative instructions (Count)
system.cpu.iqFullEvents                           970                       # Number of times the IQ has become full, causing a stall (Count)
system.cpu.lsqFullEvents                       114739                       # Number of times the LSQ has become full, causing a stall (Count)
system.cpu.memOrderViolationEvents               3315                       # Number of memory order violations (Count)
system.cpu.predictedTakenIncorrect             185713                       # Number of branches that were predicted taken incorrectly (Count)
system.cpu.predictedNotTakenIncorrect          385766                       # Number of branches that were predicted not taken incorrectly (Count)
system.cpu.branchMispredicts                   571479                       # Number of branch mispredicts detected at execute (Count)
system.cpu.numInsts                          28772863                       # Number of executed instructions (Count)
system.cpu.numLoadInsts                       5044640                       # Number of load instructions executed (Count)
system.cpu.numSquashedInsts                   1253759                       # Number of squashed instructions skipped in execute (Count)
system.cpu.numSwp                                   0                       # Number of swp insts executed (Count)
system.cpu.numNop                                   0                       # Number of nop insts executed (Count)
system.cpu.numRefs                            7558880                       # Number of memory reference insts executed (Count)
system.cpu.numBranches                        2715366                       # Number of branches executed (Count)
system.cpu.numStoreInsts                      2514240                       # Number of stores executed (Count)
system.cpu.numRate                           2.234901                       # Inst execution rate ((Count/Cycle))
system.cpu.instsToCommit                     28371602                       # Cumulative count of insts sent to commit (Count)
system.cpu.writebackCount                    28090480                       # Cumulative count of insts written-back (Count)
system.cpu.producerInst                      20946172                       # Number of instructions producing a value (Count)
system.cpu.consumerInst                      33956799                       # Number of instructions consuming a value (Count)
system.cpu.wbRate                            2.181898                       # Insts written-back per cycle ((Count/Cycle))
system.cpu.wbFanout                          0.616848                       # Average fanout of values written-back ((Count/Count))
system.cpu.timesIdled                             520                       # Number of times that the entire CPU went into an idle state and unscheduled itself (Count)
system.cpu.idleCycles                           58158                       # Total number of cycles that the CPU has spent unscheduled due to idling (Cycle)
system.cpu.committedInsts                    10000001                       # Number of Instructions Simulated (Count)
system.cpu.committedOps                      19249507                       # Number of Ops (including micro ops) Simulated (Count)
system.cpu.cpi                               1.287433                       # CPI: Cycles Per Instruction ((Cycle/Count))
system.cpu.totalCpi                          1.287433                       # CPI: Total CPI of All Threads ((Cycle/Count))
system.cpu.ipc                               0.776739                       # IPC: Instructions Per Cycle ((Count/Cycle))
system.cpu.totalIpc                          0.776739                       # IPC: Total IPC of All Threads ((Count/Cycle))
system.cpu.intRegfileReads                   41764896                       # Number of integer regfile reads (Count)
system.cpu.intRegfileWrites                  23277934                       # Number of integer regfile writes (Count)
system.cpu.fpRegfileReads                       68633                       # Number of floating regfile reads (Count)
system.cpu.fpRegfileWrites                      64119                       # Number of floating regfile writes (Count)
system.cpu.ccRegfileReads                    14163721                       # number of cc regfile reads (Count)
system.cpu.ccRegfileWrites                    8302476                       # number of cc regfile writes (Count)
system.cpu.miscRegfileReads                  13589326                       # number of misc regfile reads (Count)
system.cpu.miscRegfileWrites                    27369                       # number of misc regfile writes (Count)
system.cpu.MemDepUnit__0.insertedLoads        6071185                       # Number of loads inserted to the mem dependence unit. (Count)
system.cpu.MemDepUnit__0.insertedStores       3153721                       # Number of stores inserted to the mem dependence unit. (Count)
system.cpu.MemDepUnit__0.conflictingLoads      1067431                       # Number of conflicting loads. (Count)
system.cpu.MemDepUnit__0.conflictingStores       494384                       # Number of conflicting stores. (Count)
system.cpu.MemDepUnit__1.insertedLoads              0                       # Number of loads inserted to the mem dependence unit. (Count)
system.cpu.MemDepUnit__1.insertedStores             0                       # Number of stores inserted to the mem dependence unit. (Count)
system.cpu.MemDepUnit__1.conflictingLoads            0                       # Number of conflicting loads. (Count)
system.cpu.MemDepUnit__1.conflictingStores            0                       # Number of conflicting stores. (Count)
system.cpu.MemDepUnit__2.insertedLoads              0                       # Number of loads inserted to the mem dependence unit. (Count)
system.cpu.MemDepUnit__2.insertedStores             0                       # Number of stores inserted to the mem dependence unit. (Count)
system.cpu.MemDepUnit__2.conflictingLoads            0                       # Number of conflicting loads. (Count)
system.cpu.MemDepUnit__2.conflictingStores            0                       # Number of conflicting stores. (Count)
system.cpu.MemDepUnit__3.insertedLoads              0                       # Number of loads inserted to the mem dependence unit. (Count)
system.cpu.MemDepUnit__3.insertedStores             0                       # Number of stores inserted to the mem dependence unit. (Count)
system.cpu.MemDepUnit__3.conflictingLoads            0                       # Number of conflicting loads. (Count)
system.cpu.MemDepUnit__3.conflictingStores            0                       # Number of conflicting stores. (Count)
system.cpu.branchPred.lookups                 5218854                       # Number of BP lookups (Count)
system.cpu.branchPred.condPredicted           4249723                       # Number of conditional branches predicted (Count)
system.cpu.branchPred.condIncorrect            530119                       # Number of conditional branches incorrect (Count)
system.cpu.branchPred.BTBLookups              2494594                       # Number of BTB lookups (Count)
system.cpu.branchPred.BTBHits                 1878713                       # Number of BTB hits (Count)
system.cpu.branchPred.BTBHitRatio            0.753114                       # BTB Hit Ratio (Ratio)
system.cpu.branchPred.RASUsed                  250618                       # Number of times the RAS was used to get a target. (Count)
system.cpu.branchPred.RASIncorrect                 44                       # Number of incorrect RAS predictions. (Count)
system.cpu.branchPred.indirectLookups           30408                       # Number of indirect predictor lookups. (Count)
system.cpu.branchPred.indirectHits              29323                       # Number of indirect target hits. (Count)
system.cpu.branchPred.indirectMisses             1085                       # Number of indirect misses. (Count)
system.cpu.branchPred.indirectMispredicted          149                       # Number of mispredicted indirect branches. (Count)
system.cpu.commit.commitSquashedInsts        16727302                       # The number of squashed insts skipped by commit (Count)
system.cpu.commit.commitNonSpecStalls           13696                       # The number of times commit has been forced to stall to communicate backwards (Count)
system.cpu.commit.branchMispredicts            485308                       # The number of times a branch was mispredicted (Count)
system.cpu.commit.numCommittedDist::samples     10250929                       # Number of insts commited each cycle (Count)
system.cpu.commit.numCommittedDist::mean     1.877830                       # Number of insts commited each cycle (Count)
system.cpu.commit.numCommittedDist::stdev     2.504713                       # Number of insts commited each cycle (Count)
system.cpu.commit.numCommittedDist::underflows            0      0.00%      0.00% # Number of insts commited each cycle (Count)
system.cpu.commit.numCommittedDist::0         4567875     44.56%     44.56% # Number of insts commited each cycle (Count)
system.cpu.commit.numCommittedDist::1         1749406     17.07%     61.63% # Number of insts commited each cycle (Count)
system.cpu.commit.numCommittedDist::2         1000921      9.76%     71.39% # Number of insts commited each cycle (Count)
system.cpu.commit.numCommittedDist::3          947228      9.24%     80.63% # Number of insts commited each cycle (Count)
system.cpu.commit.numCommittedDist::4          476741      4.65%     85.28% # Number of insts commited each cycle (Count)
system.cpu.commit.numCommittedDist::5          210483      2.05%     87.34% # Number of insts commited each cycle (Count)
system.cpu.commit.numCommittedDist::6          267382      2.61%     89.94% # Number of insts commited each cycle (Count)
system.cpu.commit.numCommittedDist::7          154240      1.50%     91.45% # Number of insts commited each cycle (Count)
system.cpu.commit.numCommittedDist::8          876653      8.55%    100.00% # Number of insts commited each cycle (Count)
system.cpu.commit.numCommittedDist::overflows            0      0.00%    100.00% # Number of insts commited each cycle (Count)
system.cpu.commit.numCommittedDist::min_value            0                       # Number of insts commited each cycle (Count)
system.cpu.commit.numCommittedDist::max_value            8                       # Number of insts commited each cycle (Count)
system.cpu.commit.numCommittedDist::total     10250929                       # Number of insts commited each cycle (Count)
system.cpu.commit.instsCommitted             10000001                       # Number of instructions committed (Count)
system.cpu.commit.opsCommitted               19249507                       # Number of ops (including micro ops) committed (Count)
system.cpu.commit.memRefs                     5022362                       # Number of memory references committed (Count)
system.cpu.commit.loads                       3168853                       # Number of loads committed (Count)
system.cpu.commit.amos                              0                       # Number of atomic instructions committed (Count)
system.cpu.commit.membars                           0                       # Number of memory barriers committed (Count)
system.cpu.commit.branches                    2134911                       # Number of branches committed (Count)
system.cpu.commit.vectorInstructions                0                       # Number of committed Vector instructions. (Count)
system.cpu.commit.floating                      54795                       # Number of committed floating point instructions. (Count)
system.cpu.commit.integer                    19060509                       # Number of committed integer instructions. (Count)
system.cpu.commit.functionCalls                 93946                       # Number of function calls committed. (Count)
system.cpu.commit.committedInstType_0::No_OpClass        34961      0.18%      0.18% # Class of committed instruction (Count)
system.cpu.commit.committedInstType_0::IntAlu     13998964     72.72%     72.91% # Class of committed instruction (Count)
system.cpu.commit.committedInstType_0::IntMult        15837      0.08%     72.99% # Class of committed instruction (Count)
system.cpu.commit.committedInstType_0::IntDiv       177276      0.92%     73.91% # Class of committed instruction (Count)
system.cpu.commit.committedInstType_0::FloatAdd           42      0.00%     73.91% # Class of committed instruction (Count)
system.cpu.commit.committedInstType_0::FloatCmp            6      0.00%     73.91% # Class of committed instruction (Count)
system.cpu.commit.committedInstType_0::FloatCvt            0      0.00%     73.91% # Class of committed instruction (Count)
system.cpu.commit.committedInstType_0::FloatMult           47      0.00%     73.91% # Class of committed instruction (Count)
system.cpu.commit.committedInstType_0::FloatMultAcc            0      0.00%     73.91% # Class of committed instruction (Count)
system.cpu.commit.committedInstType_0::FloatDiv           12      0.00%     73.91% # Class of committed instruction (Count)
system.cpu.commit.committedInstType_0::FloatMisc            0      0.00%     73.91% # Class of committed instruction (Count)
system.cpu.commit.committedInstType_0::FloatSqrt            0      0.00%     73.91% # Class of committed instruction (Count)
system.cpu.commit.committedInstType_0::SimdAdd            0      0.00%     73.91% # Class of committed instruction (Count)
system.cpu.commit.committedInstType_0::SimdAddAcc            0      0.00%     73.91% # Class of committed instruction (Count)
system.cpu.commit.committedInstType_0::SimdAlu            0      0.00%     73.91% # Class of committed instruction (Count)
system.cpu.commit.committedInstType_0::SimdCmp            0      0.00%     73.91% # Class of committed instruction (Count)
system.cpu.commit.committedInstType_0::SimdCvt            0      0.00%     73.91% # Class of committed instruction (Count)
system.cpu.commit.committedInstType_0::SimdMisc            0      0.00%     73.91% # Class of committed instruction (Count)
system.cpu.commit.committedInstType_0::SimdMult            0      0.00%     73.91% # Class of committed instruction (Count)
system.cpu.commit.committedInstType_0::SimdMultAcc            0      0.00%     73.91% # Class of committed instruction (Count)
system.cpu.commit.committedInstType_0::SimdShift            0      0.00%     73.91% # Class of committed instruction (Count)
system.cpu.commit.committedInstType_0::SimdShiftAcc            0      0.00%     73.91% # Class of committed instruction (Count)
system.cpu.commit.committedInstType_0::SimdDiv            0      0.00%     73.91% # Class of committed instruction (Count)
system.cpu.commit.committedInstType_0::SimdSqrt            0      0.00%     73.91% # Class of committed instruction (Count)
system.cpu.commit.committedInstType_0::SimdFloatAdd            0      0.00%     73.91% # Class of committed instruction (Count)
system.cpu.commit.committedInstType_0::SimdFloatAlu            0      0.00%     73.91% # Class of committed instruction (Count)
system.cpu.commit.committedInstType_0::SimdFloatCmp            0      0.00%     73.91% # Class of committed instruction (Count)
system.cpu.commit.committedInstType_0::SimdFloatCvt            0      0.00%     73.91% # Class of committed instruction (Count)
system.cpu.commit.committedInstType_0::SimdFloatDiv            0      0.00%     73.91% # Class of committed instruction (Count)
system.cpu.commit.committedInstType_0::SimdFloatMisc            0      0.00%     73.91% # Class of committed instruction (Count)
system.cpu.commit.committedInstType_0::SimdFloatMult            0      0.00%     73.91% # Class of committed instruction (Count)
system.cpu.commit.committedInstType_0::SimdFloatMultAcc            0      0.00%     73.91% # Class of committed instruction (Count)
system.cpu.commit.committedInstType_0::SimdFloatSqrt            0      0.00%     73.91% # Class of committed instruction (Count)
system.cpu.commit.committedInstType_0::SimdReduceAdd            0      0.00%     73.91% # Class of committed instruction (Count)
system.cpu.commit.committedInstType_0::SimdReduceAlu            0      0.00%     73.91% # Class of committed instruction (Count)
system.cpu.commit.committedInstType_0::SimdReduceCmp            0      0.00%     73.91% # Class of committed instruction (Count)
system.cpu.commit.committedInstType_0::SimdFloatReduceAdd            0      0.00%     73.91% # Class of committed instruction (Count)
system.cpu.commit.committedInstType_0::SimdFloatReduceCmp            0      0.00%     73.91% # Class of committed instruction (Count)
system.cpu.commit.committedInstType_0::SimdAes            0      0.00%     73.91% # Class of committed instruction (Count)
system.cpu.commit.committedInstType_0::SimdAesMix            0      0.00%     73.91% # Class of committed instruction (Count)
system.cpu.commit.committedInstType_0::SimdSha1Hash            0      0.00%     73.91% # Class of committed instruction (Count)
system.cpu.commit.committedInstType_0::SimdSha1Hash2            0      0.00%     73.91% # Class of committed instruction (Count)
system.cpu.commit.committedInstType_0::SimdSha256Hash            0      0.00%     73.91% # Class of committed instruction (Count)
system.cpu.commit.committedInstType_0::SimdSha256Hash2            0      0.00%     73.91% # Class of committed instruction (Count)
system.cpu.commit.committedInstType_0::SimdShaSigma2            0      0.00%     73.91% # Class of committed instruction (Count)
system.cpu.commit.committedInstType_0::SimdShaSigma3            0      0.00%     73.91% # Class of committed instruction (Count)
system.cpu.commit.committedInstType_0::SimdPredAlu            0      0.00%     73.91% # Class of committed instruction (Count)
system.cpu.commit.committedInstType_0::MemRead      3155227     16.39%     90.30% # Class of committed instruction (Count)
system.cpu.commit.committedInstType_0::MemWrite      1839834      9.56%     99.86% # Class of committed instruction (Count)
system.cpu.commit.committedInstType_0::FloatMemRead        13626      0.07%     99.93% # Class of committed instruction (Count)
system.cpu.commit.committedInstType_0::FloatMemWrite        13675      0.07%    100.00% # Class of committed instruction (Count)
system.cpu.commit.committedInstType_0::IprAccess            0      0.00%    100.00% # Class of committed instruction (Count)
system.cpu.commit.committedInstType_0::InstPrefetch            0      0.00%    100.00% # Class of committed instruction (Count)
system.cpu.commit.committedInstType_0::total     19249507                       # Class of committed instruction (Count)
system.cpu.commit.commitEligibleSamples        876653                       # number cycles where commit BW limit reached (Cycle)
system.cpu.dcache.demandHits::cpu.data        5884103                       # number of demand (read+write) hits (Count)
system.cpu.dcache.demandHits::total           5884103                       # number of demand (read+write) hits (Count)
system.cpu.dcache.overallHits::cpu.data       5884103                       # number of overall hits (Count)
system.cpu.dcache.overallHits::total          5884103                       # number of overall hits (Count)
system.cpu.dcache.demandMisses::cpu.data         2584                       # number of demand (read+write) misses (Count)
system.cpu.dcache.demandMisses::total            2584                       # number of demand (read+write) misses (Count)
system.cpu.dcache.overallMisses::cpu.data         2584                       # number of overall misses (Count)
system.cpu.dcache.overallMisses::total           2584                       # number of overall misses (Count)
system.cpu.dcache.demandMissLatency::cpu.data    207906999                       # number of demand (read+write) miss ticks (Tick)
system.cpu.dcache.demandMissLatency::total    207906999                       # number of demand (read+write) miss ticks (Tick)
system.cpu.dcache.overallMissLatency::cpu.data    207906999                       # number of overall miss ticks (Tick)
system.cpu.dcache.overallMissLatency::total    207906999                       # number of overall miss ticks (Tick)
system.cpu.dcache.demandAccesses::cpu.data      5886687                       # number of demand (read+write) accesses (Count)
system.cpu.dcache.demandAccesses::total       5886687                       # number of demand (read+write) accesses (Count)
system.cpu.dcache.overallAccesses::cpu.data      5886687                       # number of overall (read+write) accesses (Count)
system.cpu.dcache.overallAccesses::total      5886687                       # number of overall (read+write) accesses (Count)
system.cpu.dcache.demandMissRate::cpu.data     0.000439                       # miss rate for demand accesses (Ratio)
system.cpu.dcache.demandMissRate::total      0.000439                       # miss rate for demand accesses (Ratio)
system.cpu.dcache.overallMissRate::cpu.data     0.000439                       # miss rate for overall accesses (Ratio)
system.cpu.dcache.overallMissRate::total     0.000439                       # miss rate for overall accesses (Ratio)
system.cpu.dcache.demandAvgMissLatency::cpu.data 80459.364938                       # average overall miss latency ((Cycle/Count))
system.cpu.dcache.demandAvgMissLatency::total 80459.364938                       # average overall miss latency ((Cycle/Count))
system.cpu.dcache.overallAvgMissLatency::cpu.data 80459.364938                       # average overall miss latency ((Cycle/Count))
system.cpu.dcache.overallAvgMissLatency::total 80459.364938                       # average overall miss latency ((Cycle/Count))
system.cpu.dcache.blockedCycles::no_mshrs          266                       # number of cycles access was blocked (Cycle)
system.cpu.dcache.blockedCycles::no_targets            0                       # number of cycles access was blocked (Cycle)
system.cpu.dcache.blockedCauses::no_mshrs            8                       # number of times access was blocked (Count)
system.cpu.dcache.blockedCauses::no_targets            0                       # number of times access was blocked (Count)
system.cpu.dcache.avgBlocked::no_mshrs      33.250000                       # average number of cycles each access was blocked ((Cycle/Count))
system.cpu.dcache.avgBlocked::no_targets          nan                       # average number of cycles each access was blocked ((Cycle/Count))
system.cpu.dcache.writebacks::writebacks         1503                       # number of writebacks (Count)
system.cpu.dcache.writebacks::total              1503                       # number of writebacks (Count)
system.cpu.dcache.demandMshrHits::cpu.data          340                       # number of demand (read+write) MSHR hits (Count)
system.cpu.dcache.demandMshrHits::total           340                       # number of demand (read+write) MSHR hits (Count)
system.cpu.dcache.overallMshrHits::cpu.data          340                       # number of overall MSHR hits (Count)
system.cpu.dcache.overallMshrHits::total          340                       # number of overall MSHR hits (Count)
system.cpu.dcache.demandMshrMisses::cpu.data         2244                       # number of demand (read+write) MSHR misses (Count)
system.cpu.dcache.demandMshrMisses::total         2244                       # number of demand (read+write) MSHR misses (Count)
system.cpu.dcache.overallMshrMisses::cpu.data         2244                       # number of overall MSHR misses (Count)
system.cpu.dcache.overallMshrMisses::total         2244                       # number of overall MSHR misses (Count)
system.cpu.dcache.demandMshrMissLatency::cpu.data    183806499                       # number of demand (read+write) MSHR miss ticks (Tick)
system.cpu.dcache.demandMshrMissLatency::total    183806499                       # number of demand (read+write) MSHR miss ticks (Tick)
system.cpu.dcache.overallMshrMissLatency::cpu.data    183806499                       # number of overall MSHR miss ticks (Tick)
system.cpu.dcache.overallMshrMissLatency::total    183806499                       # number of overall MSHR miss ticks (Tick)
system.cpu.dcache.demandMshrMissRate::cpu.data     0.000381                       # mshr miss ratio for demand accesses (Ratio)
system.cpu.dcache.demandMshrMissRate::total     0.000381                       # mshr miss ratio for demand accesses (Ratio)
system.cpu.dcache.overallMshrMissRate::cpu.data     0.000381                       # mshr miss ratio for overall accesses (Ratio)
system.cpu.dcache.overallMshrMissRate::total     0.000381                       # mshr miss ratio for overall accesses (Ratio)
system.cpu.dcache.demandAvgMshrMissLatency::cpu.data 81910.204545                       # average overall mshr miss latency ((Cycle/Count))
system.cpu.dcache.demandAvgMshrMissLatency::total 81910.204545                       # average overall mshr miss latency ((Cycle/Count))
system.cpu.dcache.overallAvgMshrMissLatency::cpu.data 81910.204545                       # average overall mshr miss latency ((Cycle/Count))
system.cpu.dcache.overallAvgMshrMissLatency::total 81910.204545                       # average overall mshr miss latency ((Cycle/Count))
system.cpu.dcache.replacements                   1715                       # number of replacements (Count)
system.cpu.dcache.ReadReq.hits::cpu.data      4032436                       # number of ReadReq hits (Count)
system.cpu.dcache.ReadReq.hits::total         4032436                       # number of ReadReq hits (Count)
system.cpu.dcache.ReadReq.misses::cpu.data          735                       # number of ReadReq misses (Count)
system.cpu.dcache.ReadReq.misses::total           735                       # number of ReadReq misses (Count)
system.cpu.dcache.ReadReq.missLatency::cpu.data     45972000                       # number of ReadReq miss ticks (Tick)
system.cpu.dcache.ReadReq.missLatency::total     45972000                       # number of ReadReq miss ticks (Tick)
system.cpu.dcache.ReadReq.accesses::cpu.data      4033171                       # number of ReadReq accesses(hits+misses) (Count)
system.cpu.dcache.ReadReq.accesses::total      4033171                       # number of ReadReq accesses(hits+misses) (Count)
system.cpu.dcache.ReadReq.missRate::cpu.data     0.000182                       # miss rate for ReadReq accesses (Ratio)
system.cpu.dcache.ReadReq.missRate::total     0.000182                       # miss rate for ReadReq accesses (Ratio)
system.cpu.dcache.ReadReq.avgMissLatency::cpu.data 62546.938776                       # average ReadReq miss latency ((Tick/Count))
system.cpu.dcache.ReadReq.avgMissLatency::total 62546.938776                       # average ReadReq miss latency ((Tick/Count))
system.cpu.dcache.ReadReq.mshrHits::cpu.data          336                       # number of ReadReq MSHR hits (Count)
system.cpu.dcache.ReadReq.mshrHits::total          336                       # number of ReadReq MSHR hits (Count)
system.cpu.dcache.ReadReq.mshrMisses::cpu.data          399                       # number of ReadReq MSHR misses (Count)
system.cpu.dcache.ReadReq.mshrMisses::total          399                       # number of ReadReq MSHR misses (Count)
system.cpu.dcache.ReadReq.mshrMissLatency::cpu.data     23915000                       # number of ReadReq MSHR miss ticks (Tick)
system.cpu.dcache.ReadReq.mshrMissLatency::total     23915000                       # number of ReadReq MSHR miss ticks (Tick)
system.cpu.dcache.ReadReq.mshrMissRate::cpu.data     0.000099                       # mshr miss rate for ReadReq accesses (Ratio)
system.cpu.dcache.ReadReq.mshrMissRate::total     0.000099                       # mshr miss rate for ReadReq accesses (Ratio)
system.cpu.dcache.ReadReq.avgMshrMissLatency::cpu.data 59937.343358                       # average ReadReq mshr miss latency ((Tick/Count))
system.cpu.dcache.ReadReq.avgMshrMissLatency::total 59937.343358                       # average ReadReq mshr miss latency ((Tick/Count))
system.cpu.dcache.WriteReq.hits::cpu.data      1851667                       # number of WriteReq hits (Count)
system.cpu.dcache.WriteReq.hits::total        1851667                       # number of WriteReq hits (Count)
system.cpu.dcache.WriteReq.misses::cpu.data         1849                       # number of WriteReq misses (Count)
system.cpu.dcache.WriteReq.misses::total         1849                       # number of WriteReq misses (Count)
system.cpu.dcache.WriteReq.missLatency::cpu.data    161934999                       # number of WriteReq miss ticks (Tick)
system.cpu.dcache.WriteReq.missLatency::total    161934999                       # number of WriteReq miss ticks (Tick)
system.cpu.dcache.WriteReq.accesses::cpu.data      1853516                       # number of WriteReq accesses(hits+misses) (Count)
system.cpu.dcache.WriteReq.accesses::total      1853516                       # number of WriteReq accesses(hits+misses) (Count)
system.cpu.dcache.WriteReq.missRate::cpu.data     0.000998                       # miss rate for WriteReq accesses (Ratio)
system.cpu.dcache.WriteReq.missRate::total     0.000998                       # miss rate for WriteReq accesses (Ratio)
system.cpu.dcache.WriteReq.avgMissLatency::cpu.data 87579.772309                       # average WriteReq miss latency ((Tick/Count))
system.cpu.dcache.WriteReq.avgMissLatency::total 87579.772309                       # average WriteReq miss latency ((Tick/Count))
system.cpu.dcache.WriteReq.mshrHits::cpu.data            4                       # number of WriteReq MSHR hits (Count)
system.cpu.dcache.WriteReq.mshrHits::total            4                       # number of WriteReq MSHR hits (Count)
system.cpu.dcache.WriteReq.mshrMisses::cpu.data         1845                       # number of WriteReq MSHR misses (Count)
system.cpu.dcache.WriteReq.mshrMisses::total         1845                       # number of WriteReq MSHR misses (Count)
system.cpu.dcache.WriteReq.mshrMissLatency::cpu.data    159891499                       # number of WriteReq MSHR miss ticks (Tick)
system.cpu.dcache.WriteReq.mshrMissLatency::total    159891499                       # number of WriteReq MSHR miss ticks (Tick)
system.cpu.dcache.WriteReq.mshrMissRate::cpu.data     0.000995                       # mshr miss rate for WriteReq accesses (Ratio)
system.cpu.dcache.WriteReq.mshrMissRate::total     0.000995                       # mshr miss rate for WriteReq accesses (Ratio)
system.cpu.dcache.WriteReq.avgMshrMissLatency::cpu.data 86662.059079                       # average WriteReq mshr miss latency ((Tick/Count))
system.cpu.dcache.WriteReq.avgMshrMissLatency::total 86662.059079                       # average WriteReq mshr miss latency ((Tick/Count))
system.cpu.dcache.power_state.pwrStateResidencyTicks::UNDEFINED   6437166500                       # Cumulative time (in ticks) in various power states (Tick)
system.cpu.dcache.tags.tagsInUse           489.530876                       # Average ticks per tags in use ((Tick/Count))
system.cpu.dcache.tags.totalRefs              5886363                       # Total number of references to valid blocks. (Count)
system.cpu.dcache.tags.sampledRefs               2227                       # Sample count of references to valid blocks. (Count)
system.cpu.dcache.tags.avgRefs            2643.180512                       # Average number of references to valid blocks. ((Count/Count))
system.cpu.dcache.tags.warmupTick              176500                       # The tick when the warmup percentage was hit. (Tick)
system.cpu.dcache.tags.occupancies::cpu.data   489.530876                       # Average occupied blocks per tick, per requestor ((Count/Tick))
system.cpu.dcache.tags.avgOccs::cpu.data     0.956115                       # Average percentage of cache occupancy ((Ratio/Tick))
system.cpu.dcache.tags.avgOccs::total        0.956115                       # Average percentage of cache occupancy ((Ratio/Tick))
system.cpu.dcache.tags.occupanciesTaskId::1024          512                       # Occupied blocks per task id (Count)
system.cpu.dcache.tags.ageTaskId_1024::0            2                       # Occupied blocks per task id, per block age (Count)
system.cpu.dcache.tags.ageTaskId_1024::1           26                       # Occupied blocks per task id, per block age (Count)
system.cpu.dcache.tags.ageTaskId_1024::2          230                       # Occupied blocks per task id, per block age (Count)
system.cpu.dcache.tags.ageTaskId_1024::3          254                       # Occupied blocks per task id, per block age (Count)
system.cpu.dcache.tags.ratioOccsTaskId::1024            1                       # Ratio of occupied blocks and all blocks, per task id (Ratio)
system.cpu.dcache.tags.tagAccesses           23548975                       # Number of tag accesses (Count)
system.cpu.dcache.tags.dataAccesses          23548975                       # Number of data accesses (Count)
system.cpu.dcache.tags.power_state.pwrStateResidencyTicks::UNDEFINED   6437166500                       # Cumulative time (in ticks) in various power states (Tick)
system.cpu.decode.idleCycles                  2934696                       # Number of cycles decode is idle (Cycle)
system.cpu.decode.blockedCycles               3096564                       # Number of cycles decode is blocked (Cycle)
system.cpu.decode.runCycles                   5808248                       # Number of cycles decode is running (Cycle)
system.cpu.decode.unblockCycles                489432                       # Number of cycles decode is unblocking (Cycle)
system.cpu.decode.squashCycles                 487237                       # Number of cycles decode is squashing (Cycle)
system.cpu.decode.branchResolved              1721763                       # Number of times decode resolved a branch (Count)
system.cpu.decode.branchMispred                 45167                       # Number of times decode detected a branch misprediction (Count)
system.cpu.decode.decodedInsts               42781342                       # Number of instructions handled by decode (Count)
system.cpu.decode.squashedInsts                 65193                       # Number of squashed instructions handled by decode (Count)
system.cpu.dtb_walker_cache.blockedCycles::no_mshrs            0                       # number of cycles access was blocked (Cycle)
system.cpu.dtb_walker_cache.blockedCycles::no_targets            0                       # number of cycles access was blocked (Cycle)
system.cpu.dtb_walker_cache.blockedCauses::no_mshrs            0                       # number of times access was blocked (Count)
system.cpu.dtb_walker_cache.blockedCauses::no_targets            0                       # number of times access was blocked (Count)
system.cpu.dtb_walker_cache.avgBlocked::no_mshrs          nan                       # average number of cycles each access was blocked ((Cycle/Count))
system.cpu.dtb_walker_cache.avgBlocked::no_targets          nan                       # average number of cycles each access was blocked ((Cycle/Count))
system.cpu.dtb_walker_cache.replacements            0                       # number of replacements (Count)
system.cpu.dtb_walker_cache.power_state.pwrStateResidencyTicks::UNDEFINED   6437166500                       # Cumulative time (in ticks) in various power states (Tick)
system.cpu.dtb_walker_cache.tags.tagsInUse            0                       # Average ticks per tags in use ((Tick/Count))
system.cpu.dtb_walker_cache.tags.totalRefs            0                       # Total number of references to valid blocks. (Count)
system.cpu.dtb_walker_cache.tags.sampledRefs            0                       # Sample count of references to valid blocks. (Count)
system.cpu.dtb_walker_cache.tags.avgRefs          nan                       # Average number of references to valid blocks. ((Count/Count))
system.cpu.dtb_walker_cache.tags.warmupTick            0                       # The tick when the warmup percentage was hit. (Tick)
system.cpu.dtb_walker_cache.tags.tagAccesses            0                       # Number of tag accesses (Count)
system.cpu.dtb_walker_cache.tags.dataAccesses            0                       # Number of data accesses (Count)
system.cpu.dtb_walker_cache.tags.power_state.pwrStateResidencyTicks::UNDEFINED   6437166500                       # Cumulative time (in ticks) in various power states (Tick)
system.cpu.fetch.icacheStallCycles            3779038                       # Number of cycles fetch is stalled on an Icache miss (Cycle)
system.cpu.fetch.insts                       23996769                       # Number of instructions fetch has processed (Count)
system.cpu.fetch.branches                     5218854                       # Number of branches that fetch encountered (Count)
system.cpu.fetch.predictedBranches            2158654                       # Number of branches that fetch has predicted taken (Count)
system.cpu.fetch.cycles                       8493385                       # Number of cycles fetch has run and was not squashing or blocked (Cycle)
system.cpu.fetch.squashCycles                 1064432                       # Number of cycles fetch has spent squashing (Cycle)
system.cpu.fetch.tlbCycles                          3                       # Number of cycles fetch has spent waiting for tlb (Cycle)
system.cpu.fetch.miscStallCycles                  187                       # Number of cycles fetch has spent waiting on interrupts, or bad addresses, or out of MSHRs (Cycle)
system.cpu.fetch.pendingTrapStallCycles         11347                       # Number of stall cycles due to pending traps (Cycle)
system.cpu.fetch.pendingQuiesceStallCycles            1                       # Number of stall cycles due to pending quiesce instructions (Cycle)
system.cpu.fetch.cacheLines                   3431910                       # Number of cache lines fetched (Count)
system.cpu.fetch.icacheSquashes                139578                       # Number of outstanding Icache misses that were squashed (Count)
system.cpu.fetch.tlbSquashes                        1                       # Number of outstanding ITLB misses that were squashed (Count)
system.cpu.fetch.nisnDist::samples           12816177                       # Number of instructions fetched each cycle (Total) (Count)
system.cpu.fetch.nisnDist::mean              3.616466                       # Number of instructions fetched each cycle (Total) (Count)
system.cpu.fetch.nisnDist::stdev             3.578903                       # Number of instructions fetched each cycle (Total) (Count)
system.cpu.fetch.nisnDist::underflows               0      0.00%      0.00% # Number of instructions fetched each cycle (Total) (Count)
system.cpu.fetch.nisnDist::0                  5431517     42.38%     42.38% # Number of instructions fetched each cycle (Total) (Count)
system.cpu.fetch.nisnDist::1                   373410      2.91%     45.29% # Number of instructions fetched each cycle (Total) (Count)
system.cpu.fetch.nisnDist::2                   542869      4.24%     49.53% # Number of instructions fetched each cycle (Total) (Count)
system.cpu.fetch.nisnDist::3                   501720      3.91%     53.44% # Number of instructions fetched each cycle (Total) (Count)
system.cpu.fetch.nisnDist::4                   317315      2.48%     55.92% # Number of instructions fetched each cycle (Total) (Count)
system.cpu.fetch.nisnDist::5                   526674      4.11%     60.03% # Number of instructions fetched each cycle (Total) (Count)
system.cpu.fetch.nisnDist::6                   553792      4.32%     64.35% # Number of instructions fetched each cycle (Total) (Count)
system.cpu.fetch.nisnDist::7                   391467      3.05%     67.41% # Number of instructions fetched each cycle (Total) (Count)
system.cpu.fetch.nisnDist::8                  4177413     32.59%    100.00% # Number of instructions fetched each cycle (Total) (Count)
system.cpu.fetch.nisnDist::overflows                0      0.00%    100.00% # Number of instructions fetched each cycle (Total) (Count)
system.cpu.fetch.nisnDist::min_value                0                       # Number of instructions fetched each cycle (Total) (Count)
system.cpu.fetch.nisnDist::max_value                8                       # Number of instructions fetched each cycle (Total) (Count)
system.cpu.fetch.nisnDist::total             12816177                       # Number of instructions fetched each cycle (Total) (Count)
system.cpu.fetch.branchRate                  0.405369                       # Number of branch fetches per cycle (Ratio)
system.cpu.fetch.rate                        1.863923                       # Number of inst fetches per cycle ((Count/Cycle))
system.cpu.icache.demandHits::cpu.inst        3430618                       # number of demand (read+write) hits (Count)
system.cpu.icache.demandHits::total           3430618                       # number of demand (read+write) hits (Count)
system.cpu.icache.overallHits::cpu.inst       3430618                       # number of overall hits (Count)
system.cpu.icache.overallHits::total          3430618                       # number of overall hits (Count)
system.cpu.icache.demandMisses::cpu.inst         1292                       # number of demand (read+write) misses (Count)
system.cpu.icache.demandMisses::total            1292                       # number of demand (read+write) misses (Count)
system.cpu.icache.overallMisses::cpu.inst         1292                       # number of overall misses (Count)
system.cpu.icache.overallMisses::total           1292                       # number of overall misses (Count)
system.cpu.icache.demandMissLatency::cpu.inst     82292000                       # number of demand (read+write) miss ticks (Tick)
system.cpu.icache.demandMissLatency::total     82292000                       # number of demand (read+write) miss ticks (Tick)
system.cpu.icache.overallMissLatency::cpu.inst     82292000                       # number of overall miss ticks (Tick)
system.cpu.icache.overallMissLatency::total     82292000                       # number of overall miss ticks (Tick)
system.cpu.icache.demandAccesses::cpu.inst      3431910                       # number of demand (read+write) accesses (Count)
system.cpu.icache.demandAccesses::total       3431910                       # number of demand (read+write) accesses (Count)
system.cpu.icache.overallAccesses::cpu.inst      3431910                       # number of overall (read+write) accesses (Count)
system.cpu.icache.overallAccesses::total      3431910                       # number of overall (read+write) accesses (Count)
system.cpu.icache.demandMissRate::cpu.inst     0.000376                       # miss rate for demand accesses (Ratio)
system.cpu.icache.demandMissRate::total      0.000376                       # miss rate for demand accesses (Ratio)
system.cpu.icache.overallMissRate::cpu.inst     0.000376                       # miss rate for overall accesses (Ratio)
system.cpu.icache.overallMissRate::total     0.000376                       # miss rate for overall accesses (Ratio)
system.cpu.icache.demandAvgMissLatency::cpu.inst 63693.498452                       # average overall miss latency ((Cycle/Count))
system.cpu.icache.demandAvgMissLatency::total 63693.498452                       # average overall miss latency ((Cycle/Count))
system.cpu.icache.overallAvgMissLatency::cpu.inst 63693.498452                       # average overall miss latency ((Cycle/Count))
system.cpu.icache.overallAvgMissLatency::total 63693.498452                       # average overall miss latency ((Cycle/Count))
system.cpu.icache.blockedCycles::no_mshrs          213                       # number of cycles access was blocked (Cycle)
system.cpu.icache.blockedCycles::no_targets            0                       # number of cycles access was blocked (Cycle)
system.cpu.icache.blockedCauses::no_mshrs            2                       # number of times access was blocked (Count)
system.cpu.icache.blockedCauses::no_targets            0                       # number of times access was blocked (Count)
system.cpu.icache.avgBlocked::no_mshrs     106.500000                       # average number of cycles each access was blocked ((Cycle/Count))
system.cpu.icache.avgBlocked::no_targets          nan                       # average number of cycles each access was blocked ((Cycle/Count))
system.cpu.icache.writebacks::writebacks          459                       # number of writebacks (Count)
system.cpu.icache.writebacks::total               459                       # number of writebacks (Count)
system.cpu.icache.demandMshrHits::cpu.inst          326                       # number of demand (read+write) MSHR hits (Count)
system.cpu.icache.demandMshrHits::total           326                       # number of demand (read+write) MSHR hits (Count)
system.cpu.icache.overallMshrHits::cpu.inst          326                       # number of overall MSHR hits (Count)
system.cpu.icache.overallMshrHits::total          326                       # number of overall MSHR hits (Count)
system.cpu.icache.demandMshrMisses::cpu.inst          966                       # number of demand (read+write) MSHR misses (Count)
system.cpu.icache.demandMshrMisses::total          966                       # number of demand (read+write) MSHR misses (Count)
system.cpu.icache.overallMshrMisses::cpu.inst          966                       # number of overall MSHR misses (Count)
system.cpu.icache.overallMshrMisses::total          966                       # number of overall MSHR misses (Count)
system.cpu.icache.demandMshrMissLatency::cpu.inst     63041500                       # number of demand (read+write) MSHR miss ticks (Tick)
system.cpu.icache.demandMshrMissLatency::total     63041500                       # number of demand (read+write) MSHR miss ticks (Tick)
system.cpu.icache.overallMshrMissLatency::cpu.inst     63041500                       # number of overall MSHR miss ticks (Tick)
system.cpu.icache.overallMshrMissLatency::total     63041500                       # number of overall MSHR miss ticks (Tick)
system.cpu.icache.demandMshrMissRate::cpu.inst     0.000281                       # mshr miss ratio for demand accesses (Ratio)
system.cpu.icache.demandMshrMissRate::total     0.000281                       # mshr miss ratio for demand accesses (Ratio)
system.cpu.icache.overallMshrMissRate::cpu.inst     0.000281                       # mshr miss ratio for overall accesses (Ratio)
system.cpu.icache.overallMshrMissRate::total     0.000281                       # mshr miss ratio for overall accesses (Ratio)
system.cpu.icache.demandAvgMshrMissLatency::cpu.inst 65260.351967                       # average overall mshr miss latency ((Cycle/Count))
system.cpu.icache.demandAvgMshrMissLatency::total 65260.351967                       # average overall mshr miss latency ((Cycle/Count))
system.cpu.icache.overallAvgMshrMissLatency::cpu.inst 65260.351967                       # average overall mshr miss latency ((Cycle/Count))
system.cpu.icache.overallAvgMshrMissLatency::total 65260.351967                       # average overall mshr miss latency ((Cycle/Count))
system.cpu.icache.replacements                    459                       # number of replacements (Count)
system.cpu.icache.ReadReq.hits::cpu.inst      3430618                       # number of ReadReq hits (Count)
system.cpu.icache.ReadReq.hits::total         3430618                       # number of ReadReq hits (Count)
system.cpu.icache.ReadReq.misses::cpu.inst         1292                       # number of ReadReq misses (Count)
system.cpu.icache.ReadReq.misses::total          1292                       # number of ReadReq misses (Count)
system.cpu.icache.ReadReq.missLatency::cpu.inst     82292000                       # number of ReadReq miss ticks (Tick)
system.cpu.icache.ReadReq.missLatency::total     82292000                       # number of ReadReq miss ticks (Tick)
system.cpu.icache.ReadReq.accesses::cpu.inst      3431910                       # number of ReadReq accesses(hits+misses) (Count)
system.cpu.icache.ReadReq.accesses::total      3431910                       # number of ReadReq accesses(hits+misses) (Count)
system.cpu.icache.ReadReq.missRate::cpu.inst     0.000376                       # miss rate for ReadReq accesses (Ratio)
system.cpu.icache.ReadReq.missRate::total     0.000376                       # miss rate for ReadReq accesses (Ratio)
system.cpu.icache.ReadReq.avgMissLatency::cpu.inst 63693.498452                       # average ReadReq miss latency ((Tick/Count))
system.cpu.icache.ReadReq.avgMissLatency::total 63693.498452                       # average ReadReq miss latency ((Tick/Count))
system.cpu.icache.ReadReq.mshrHits::cpu.inst          326                       # number of ReadReq MSHR hits (Count)
system.cpu.icache.ReadReq.mshrHits::total          326                       # number of ReadReq MSHR hits (Count)
system.cpu.icache.ReadReq.mshrMisses::cpu.inst          966                       # number of ReadReq MSHR misses (Count)
system.cpu.icache.ReadReq.mshrMisses::total          966                       # number of ReadReq MSHR misses (Count)
system.cpu.icache.ReadReq.mshrMissLatency::cpu.inst     63041500                       # number of ReadReq MSHR miss ticks (Tick)
system.cpu.icache.ReadReq.mshrMissLatency::total     63041500                       # number of ReadReq MSHR miss ticks (Tick)
system.cpu.icache.ReadReq.mshrMissRate::cpu.inst     0.000281                       # mshr miss rate for ReadReq accesses (Ratio)
system.cpu.icache.ReadReq.mshrMissRate::total     0.000281                       # mshr miss rate for ReadReq accesses (Ratio)
system.cpu.icache.ReadReq.avgMshrMissLatency::cpu.inst 65260.351967                       # average ReadReq mshr miss latency ((Tick/Count))
system.cpu.icache.ReadReq.avgMshrMissLatency::total 65260.351967                       # average ReadReq mshr miss latency ((Tick/Count))
system.cpu.icache.power_state.pwrStateResidencyTicks::UNDEFINED   6437166500                       # Cumulative time (in ticks) in various power states (Tick)
system.cpu.icache.tags.tagsInUse           488.302317                       # Average ticks per tags in use ((Tick/Count))
system.cpu.icache.tags.totalRefs              3431584                       # Total number of references to valid blocks. (Count)
system.cpu.icache.tags.sampledRefs                966                       # Sample count of references to valid blocks. (Count)
system.cpu.icache.tags.avgRefs            3552.364389                       # Average number of references to valid blocks. ((Count/Count))
system.cpu.icache.tags.warmupTick               87500                       # The tick when the warmup percentage was hit. (Tick)
system.cpu.icache.tags.occupancies::cpu.inst   488.302317                       # Average occupied blocks per tick, per requestor ((Count/Tick))
system.cpu.icache.tags.avgOccs::cpu.inst     0.953715                       # Average percentage of cache occupancy ((Ratio/Tick))
system.cpu.icache.tags.avgOccs::total        0.953715                       # Average percentage of cache occupancy ((Ratio/Tick))
system.cpu.icache.tags.occupanciesTaskId::1024          490                       # Occupied blocks per task id (Count)
system.cpu.icache.tags.ageTaskId_1024::1            1                       # Occupied blocks per task id, per block age (Count)
system.cpu.icache.tags.ageTaskId_1024::2            1                       # Occupied blocks per task id, per block age (Count)
system.cpu.icache.tags.ageTaskId_1024::3          488                       # Occupied blocks per task id, per block age (Count)
system.cpu.icache.tags.ratioOccsTaskId::1024     0.957031                       # Ratio of occupied blocks and all blocks, per task id (Ratio)
system.cpu.icache.tags.tagAccesses           13728606                       # Number of tag accesses (Count)
system.cpu.icache.tags.dataAccesses          13728606                       # Number of data accesses (Count)
system.cpu.icache.tags.power_state.pwrStateResidencyTicks::UNDEFINED   6437166500                       # Cumulative time (in ticks) in various power states (Tick)
system.cpu.interrupts.clk_domain.clock           8000                       # Clock period in ticks (Tick)
system.cpu.itb_walker_cache.blockedCycles::no_mshrs            0                       # number of cycles access was blocked (Cycle)
system.cpu.itb_walker_cache.blockedCycles::no_targets            0                       # number of cycles access was blocked (Cycle)
system.cpu.itb_walker_cache.blockedCauses::no_mshrs            0                       # number of times access was blocked (Count)
system.cpu.itb_walker_cache.blockedCauses::no_targets            0                       # number of times access was blocked (Count)
system.cpu.itb_walker_cache.avgBlocked::no_mshrs          nan                       # average number of cycles each access was blocked ((Cycle/Count))
system.cpu.itb_walker_cache.avgBlocked::no_targets          nan                       # average number of cycles each access was blocked ((Cycle/Count))
system.cpu.itb_walker_cache.replacements            0                       # number of replacements (Count)
system.cpu.itb_walker_cache.power_state.pwrStateResidencyTicks::UNDEFINED   6437166500                       # Cumulative time (in ticks) in various power states (Tick)
system.cpu.itb_walker_cache.tags.tagsInUse            0                       # Average ticks per tags in use ((Tick/Count))
system.cpu.itb_walker_cache.tags.totalRefs            0                       # Total number of references to valid blocks. (Count)
system.cpu.itb_walker_cache.tags.sampledRefs            0                       # Sample count of references to valid blocks. (Count)
system.cpu.itb_walker_cache.tags.avgRefs          nan                       # Average number of references to valid blocks. ((Count/Count))
system.cpu.itb_walker_cache.tags.warmupTick            0                       # The tick when the warmup percentage was hit. (Tick)
system.cpu.itb_walker_cache.tags.tagAccesses            0                       # Number of tag accesses (Count)
system.cpu.itb_walker_cache.tags.dataAccesses            0                       # Number of data accesses (Count)
system.cpu.itb_walker_cache.tags.power_state.pwrStateResidencyTicks::UNDEFINED   6437166500                       # Cumulative time (in ticks) in various power states (Tick)
system.cpu.lsq0.forwLoads                      966555                       # Number of loads that had data forwarded from stores (Count)
system.cpu.lsq0.squashedLoads                 2902328                       # Number of loads squashed (Count)
system.cpu.lsq0.ignoredResponses                 9648                       # Number of memory responses ignored because the instruction is squashed (Count)
system.cpu.lsq0.memOrderViolation                3315                       # Number of memory ordering violations (Count)
system.cpu.lsq0.squashedStores                1300207                       # Number of stores squashed (Count)
system.cpu.lsq0.rescheduledLoads                18887                       # Number of loads that were rescheduled (Count)
system.cpu.lsq0.blockedByCache                      7                       # Number of times an access to memory failed due to the cache being blocked (Count)
system.cpu.lsq0.loadToUse::samples            3168853                       # Distribution of cycle latency between the first time a load is issued and its completion (Unspecified)
system.cpu.lsq0.loadToUse::mean              3.085326                       # Distribution of cycle latency between the first time a load is issued and its completion (Unspecified)
system.cpu.lsq0.loadToUse::stdev             1.916705                       # Distribution of cycle latency between the first time a load is issued and its completion (Unspecified)
system.cpu.lsq0.loadToUse::0-9                3161661     99.77%     99.77% # Distribution of cycle latency between the first time a load is issued and its completion (Unspecified)
system.cpu.lsq0.loadToUse::10-19                  487      0.02%     99.79% # Distribution of cycle latency between the first time a load is issued and its completion (Unspecified)
system.cpu.lsq0.loadToUse::20-29                 6444      0.20%     99.99% # Distribution of cycle latency between the first time a load is issued and its completion (Unspecified)
system.cpu.lsq0.loadToUse::30-39                    1      0.00%     99.99% # Distribution of cycle latency between the first time a load is issued and its completion (Unspecified)
system.cpu.lsq0.loadToUse::40-49                    3      0.00%     99.99% # Distribution of cycle latency between the first time a load is issued and its completion (Unspecified)
system.cpu.lsq0.loadToUse::50-59                    2      0.00%     99.99% # Distribution of cycle latency between the first time a load is issued and its completion (Unspecified)
[...]
system.mem_ctrls.dram.perBankWrBursts::13            0                       # Per bank write bursts (Count)
system.mem_ctrls.dram.perBankWrBursts::14            0                       # Per bank write bursts (Count)
system.mem_ctrls.dram.perBankWrBursts::15            0                       # Per bank write bursts (Count)
system.mem_ctrls.dram.totQLat                41035500                       # Total ticks spent queuing (Tick)
system.mem_ctrls.dram.totBusLat              14085000                       # Total ticks spent in databus transfers (Tick)
system.mem_ctrls.dram.totMemAccLat           93854250                       # Total ticks spent from burst creation until serviced by the DRAM (Tick)
system.mem_ctrls.dram.avgQLat                14567.09                       # Average queueing delay per DRAM burst ((Tick/Count))
system.mem_ctrls.dram.avgBusLat               5000.00                       # Average bus latency per DRAM burst ((Tick/Count))
system.mem_ctrls.dram.avgMemAccLat           33317.09                       # Average memory access latency per DRAM burst ((Tick/Count))
system.mem_ctrls.dram.readRowHits                 865                       # Number of row buffer hits during reads (Count)
system.mem_ctrls.dram.writeRowHits                  0                       # Number of row buffer hits during writes (Count)
system.mem_ctrls.dram.readRowHitRate            30.71                       # Row buffer hit rate for reads (Ratio)
system.mem_ctrls.dram.writeRowHitRate             nan                       # Row buffer hit rate for writes (Ratio)
system.mem_ctrls.dram.bytesPerActivate::samples         1952                       # Bytes accessed per row activation (Byte)
system.mem_ctrls.dram.bytesPerActivate::mean    92.360656                       # Bytes accessed per row activation (Byte)
system.mem_ctrls.dram.bytesPerActivate::gmean    75.680186                       # Bytes accessed per row activation (Byte)
system.mem_ctrls.dram.bytesPerActivate::stdev   112.474653                       # Bytes accessed per row activation (Byte)
system.mem_ctrls.dram.bytesPerActivate::0-127         1661     85.09%     85.09% # Bytes accessed per row activation (Byte)
system.mem_ctrls.dram.bytesPerActivate::128-255          205     10.50%     95.59% # Bytes accessed per row activation (Byte)
system.mem_ctrls.dram.bytesPerActivate::256-383           30      1.54%     97.13% # Bytes accessed per row activation (Byte)
system.mem_ctrls.dram.bytesPerActivate::384-511           19      0.97%     98.10% # Bytes accessed per row activation (Byte)
system.mem_ctrls.dram.bytesPerActivate::512-639           13      0.67%     98.77% # Bytes accessed per row activation (Byte)
system.mem_ctrls.dram.bytesPerActivate::640-767            4      0.20%     98.98% # Bytes accessed per row activation (Byte)
system.mem_ctrls.dram.bytesPerActivate::768-895            3      0.15%     99.13% # Bytes accessed per row activation (Byte)
system.mem_ctrls.dram.bytesPerActivate::896-1023            3      0.15%     99.28% # Bytes accessed per row activation (Byte)
system.mem_ctrls.dram.bytesPerActivate::1024-1151           14      0.72%    100.00% # Bytes accessed per row activation (Byte)
system.mem_ctrls.dram.bytesPerActivate::total         1952                       # Bytes accessed per row activation (Byte)
system.mem_ctrls.dram.bytesRead                180288                       # Total number of bytes read from DRAM (Byte)
system.mem_ctrls.dram.bytesWritten                  0                       # Total number of bytes written to DRAM (Byte)
system.mem_ctrls.dram.avgRdBW               28.007354                       # Average DRAM read bandwidth in MiBytes/s ((Byte/Second))
system.mem_ctrls.dram.avgWrBW                       0                       # Average DRAM write bandwidth in MiBytes/s ((Byte/Second))
system.mem_ctrls.dram.peakBW                 12800.00                       # Theoretical peak bandwidth in MiByte/s ((Byte/Second))
system.mem_ctrls.dram.busUtil                    0.22                       # Data bus utilization in percentage (Ratio)
system.mem_ctrls.dram.busUtilRead                0.22                       # Data bus utilization in percentage for reads (Ratio)
system.mem_ctrls.dram.busUtilWrite               0.00                       # Data bus utilization in percentage for writes (Ratio)
system.mem_ctrls.dram.pageHitRate               30.71                       # Row buffer hit rate, read and write combined (Ratio)
system.mem_ctrls.dram.power_state.pwrStateResidencyTicks::UNDEFINED   6437166500                       # Cumulative time (in ticks) in various power states (Tick)
system.mem_ctrls.dram.rank0.actEnergy         5340720                       # Energy for activate commands per rank (pJ) (Joule)
system.mem_ctrls.dram.rank0.preEnergy         2838660                       # Energy for precharge commands per rank (pJ) (Joule)
system.mem_ctrls.dram.rank0.readEnergy        8553720                       # Energy for read commands per rank (pJ) (Joule)
system.mem_ctrls.dram.rank0.writeEnergy             0                       # Energy for write commands per rank (pJ) (Joule)
system.mem_ctrls.dram.rank0.refreshEnergy 507692640.000000                       # Energy for refresh commands per rank (pJ) (Joule)
system.mem_ctrls.dram.rank0.actBackEnergy   1078312320                       # Energy for active background per rank (pJ) (Joule)
system.mem_ctrls.dram.rank0.preBackEnergy   1563819840                       # Energy for precharge background per rank (pJ) (Joule)
system.mem_ctrls.dram.rank0.actPowerDownEnergy            0                       # Energy for active power-down per rank (pJ) (Joule)
system.mem_ctrls.dram.rank0.prePowerDownEnergy            0                       # Energy for precharge power-down per rank (pJ) (Joule)
system.mem_ctrls.dram.rank0.selfRefreshEnergy            0                       # Energy for self refresh per rank (pJ) (Joule)
system.mem_ctrls.dram.rank0.totalEnergy    3166557900                       # Total energy per rank (pJ) (Joule)
system.mem_ctrls.dram.rank0.averagePower   491.917974                       # Core power per rank (mW) (Watt)
system.mem_ctrls.dram.rank0.totalIdleTime            0                       # Total Idle time Per DRAM Rank (Tick)
system.mem_ctrls.dram.rank0.pwrStateTime::IDLE   4054673500                       # Time in different power states (Tick)
system.mem_ctrls.dram.rank0.pwrStateTime::REF    214760000                       # Time in different power states (Tick)
system.mem_ctrls.dram.rank0.pwrStateTime::SREF            0                       # Time in different power states (Tick)
system.mem_ctrls.dram.rank0.pwrStateTime::PRE_PDN            0                       # Time in different power states (Tick)
system.mem_ctrls.dram.rank0.pwrStateTime::ACT   2167733000                       # Time in different power states (Tick)
system.mem_ctrls.dram.rank0.pwrStateTime::ACT_PDN            0                       # Time in different power states (Tick)
system.mem_ctrls.dram.rank1.actEnergy         8596560                       # Energy for activate commands per rank (pJ) (Joule)
system.mem_ctrls.dram.rank1.preEnergy         4569180                       # Energy for precharge commands per rank (pJ) (Joule)
system.mem_ctrls.dram.rank1.readEnergy       11559660                       # Energy for read commands per rank (pJ) (Joule)
system.mem_ctrls.dram.rank1.writeEnergy             0                       # Energy for write commands per rank (pJ) (Joule)
system.mem_ctrls.dram.rank1.refreshEnergy 507692640.000000                       # Energy for refresh commands per rank (pJ) (Joule)
system.mem_ctrls.dram.rank1.actBackEnergy   1551405480                       # Energy for active background per rank (pJ) (Joule)
system.mem_ctrls.dram.rank1.preBackEnergy   1165425600                       # Energy for precharge background per rank (pJ) (Joule)
system.mem_ctrls.dram.rank1.actPowerDownEnergy            0                       # Energy for active power-down per rank (pJ) (Joule)
system.mem_ctrls.dram.rank1.prePowerDownEnergy            0                       # Energy for precharge power-down per rank (pJ) (Joule)
system.mem_ctrls.dram.rank1.selfRefreshEnergy            0                       # Energy for self refresh per rank (pJ) (Joule)
system.mem_ctrls.dram.rank1.totalEnergy    3249249120                       # Total energy per rank (pJ) (Joule)
system.mem_ctrls.dram.rank1.averagePower   504.763877                       # Core power per rank (mW) (Watt)
system.mem_ctrls.dram.rank1.totalIdleTime            0                       # Total Idle time Per DRAM Rank (Tick)
system.mem_ctrls.dram.rank1.pwrStateTime::IDLE   3012702250                       # Time in different power states (Tick)
system.mem_ctrls.dram.rank1.pwrStateTime::REF    214760000                       # Time in different power states (Tick)
system.mem_ctrls.dram.rank1.pwrStateTime::SREF            0                       # Time in different power states (Tick)
system.mem_ctrls.dram.rank1.pwrStateTime::PRE_PDN            0                       # Time in different power states (Tick)
system.mem_ctrls.dram.rank1.pwrStateTime::ACT   3209704250                       # Time in different power states (Tick)
system.mem_ctrls.dram.rank1.pwrStateTime::ACT_PDN            0                       # Time in different power states (Tick)
system.mem_ctrls.power_state.pwrStateResidencyTicks::UNDEFINED   6437166500                       # Cumulative time (in ticks) in various power states (Tick)
system.membus.transDist::ReadResp                1012                       # Transaction distribution (Count)
system.membus.transDist::CleanEvict                17                       # Transaction distribution (Count)
system.membus.transDist::ReadExReq               1805                       # Transaction distribution (Count)
system.membus.transDist::ReadExResp              1805                       # Transaction distribution (Count)
system.membus.transDist::ReadSharedReq           1012                       # Transaction distribution (Count)
system.membus.pktCount_system.l2.mem_side_port::system.mem_ctrls.port         5651                       # Packet count per connected requestor and responder (Count)
system.membus.pktCount_system.l2.mem_side_port::total         5651                       # Packet count per connected requestor and responder (Count)
system.membus.pktCount::total                    5651                       # Packet count per connected requestor and responder (Count)
system.membus.pktSize_system.l2.mem_side_port::system.mem_ctrls.port       180288                       # Cumulative packet size per connected requestor and responder (Byte)
system.membus.pktSize_system.l2.mem_side_port::total       180288                       # Cumulative packet size per connected requestor and responder (Byte)
system.membus.pktSize::total                   180288                       # Cumulative packet size per connected requestor and responder (Byte)
system.membus.snoops                                0                       # Total snoops (Count)
system.membus.snoopTraffic                          0                       # Total snoop traffic (Byte)
system.membus.snoopFanout::samples               2817                       # Request fanout histogram (Count)
system.membus.snoopFanout::mean                     0                       # Request fanout histogram (Count)
system.membus.snoopFanout::stdev                    0                       # Request fanout histogram (Count)
system.membus.snoopFanout::underflows               0      0.00%      0.00% # Request fanout histogram (Count)
system.membus.snoopFanout::0                     2817    100.00%    100.00% # Request fanout histogram (Count)
system.membus.snoopFanout::1                        0      0.00%    100.00% # Request fanout histogram (Count)
system.membus.snoopFanout::overflows                0      0.00%    100.00% # Request fanout histogram (Count)
system.membus.snoopFanout::min_value                0                       # Request fanout histogram (Count)
system.membus.snoopFanout::max_value                0                       # Request fanout histogram (Count)
system.membus.snoopFanout::total                 2817                       # Request fanout histogram (Count)
system.membus.power_state.pwrStateResidencyTicks::UNDEFINED   6437166500                       # Cumulative time (in ticks) in various power states (Tick)
system.membus.reqLayer2.occupancy             3420000                       # Layer occupancy (ticks) (Tick)
system.membus.reqLayer2.utilization               0.0                       # Layer utilization (Ratio)
system.membus.respLayer1.occupancy           15293250                       # Layer occupancy (ticks) (Tick)
system.membus.respLayer1.utilization              0.0                       # Layer utilization (Ratio)
system.membus.snoop_filter.totRequests           2834                       # Total number of requests made to the snoop filter. (Count)
system.membus.snoop_filter.hitSingleRequests           17                       # Number of requests hitting in the snoop filter with a single holder of the requested data. (Count)
system.membus.snoop_filter.hitMultiRequests            0                       # Number of requests hitting in the snoop filter with multiple (>1) holders of the requested data. (Count)
system.membus.snoop_filter.totSnoops                0                       # Total number of snoops made to the snoop filter. (Count)
system.membus.snoop_filter.hitSingleSnoops            0                       # Number of snoops hitting in the snoop filter with a single holder of the requested data. (Count)
system.membus.snoop_filter.hitMultiSnoops            0                       # Number of snoops hitting in the snoop filter with multiple (>1) holders of the requested data. (Count)
system.tol2bus.transDist::ReadResp               1365                       # Transaction distribution (Count)
system.tol2bus.transDist::WritebackDirty         1503                       # Transaction distribution (Count)
system.tol2bus.transDist::WritebackClean          459                       # Transaction distribution (Count)
system.tol2bus.transDist::CleanEvict              249                       # Transaction distribution (Count)
system.tol2bus.transDist::UpgradeReq               17                       # Transaction distribution (Count)
system.tol2bus.transDist::UpgradeResp              17                       # Transaction distribution (Count)
system.tol2bus.transDist::ReadExReq              1828                       # Transaction distribution (Count)
system.tol2bus.transDist::ReadExResp             1828                       # Transaction distribution (Count)
system.tol2bus.transDist::ReadCleanReq            966                       # Transaction distribution (Count)
system.tol2bus.transDist::ReadSharedReq           399                       # Transaction distribution (Count)
system.tol2bus.pktCount_system.cpu.icache.mem_side_port::system.l2.cpu_side_port         2374                       # Packet count per connected requestor and responder (Count)
system.tol2bus.pktCount_system.cpu.dcache.mem_side_port::system.l2.cpu_side_port         6203                       # Packet count per connected requestor and responder (Count)
system.tol2bus.pktCount::total                   8577                       # Packet count per connected requestor and responder (Count)
system.tol2bus.pktSize_system.cpu.icache.mem_side_port::system.l2.cpu_side_port        90112                       # Cumulative packet size per connected requestor and responder (Byte)
system.tol2bus.pktSize_system.cpu.dcache.mem_side_port::system.l2.cpu_side_port       238720                       # Cumulative packet size per connected requestor and responder (Byte)
system.tol2bus.pktSize::total                  328832                       # Cumulative packet size per connected requestor and responder (Byte)
system.tol2bus.snoops                              54                       # Total snoops (Count)
system.tol2bus.snoopTraffic                      1088                       # Total snoop traffic (Byte)
system.tol2bus.snoopFanout::samples              3247                       # Request fanout histogram (Count)
system.tol2bus.snoopFanout::mean             0.017863                       # Request fanout histogram (Count)
system.tol2bus.snoopFanout::stdev            0.132473                       # Request fanout histogram (Count)
system.tol2bus.snoopFanout::underflows              0      0.00%      0.00% # Request fanout histogram (Count)
system.tol2bus.snoopFanout::0                    3189     98.21%     98.21% # Request fanout histogram (Count)
system.tol2bus.snoopFanout::1                      58      1.79%    100.00% # Request fanout histogram (Count)
system.tol2bus.snoopFanout::2                       0      0.00%    100.00% # Request fanout histogram (Count)
system.tol2bus.snoopFanout::3                       0      0.00%    100.00% # Request fanout histogram (Count)
system.tol2bus.snoopFanout::4                       0      0.00%    100.00% # Request fanout histogram (Count)
system.tol2bus.snoopFanout::overflows               0      0.00%    100.00% # Request fanout histogram (Count)
system.tol2bus.snoopFanout::min_value               0                       # Request fanout histogram (Count)
system.tol2bus.snoopFanout::max_value               1                       # Request fanout histogram (Count)
system.tol2bus.snoopFanout::total                3247                       # Request fanout histogram (Count)
system.tol2bus.power_state.pwrStateResidencyTicks::UNDEFINED   6437166500                       # Cumulative time (in ticks) in various power states (Tick)
system.tol2bus.reqLayer0.occupancy            4654000                       # Layer occupancy (ticks) (Tick)
system.tol2bus.reqLayer0.utilization              0.0                       # Layer utilization (Ratio)
system.tol2bus.respLayer0.occupancy           1449000                       # Layer occupancy (ticks) (Tick)
system.tol2bus.respLayer0.utilization             0.0                       # Layer utilization (Ratio)
system.tol2bus.respLayer1.occupancy           3349000                       # Layer occupancy (ticks) (Tick)
system.tol2bus.respLayer1.utilization             0.0                       # Layer utilization (Ratio)
system.tol2bus.snoop_filter.totRequests          5384                       # Total number of requests made to the snoop filter. (Count)
system.tol2bus.snoop_filter.hitSingleRequests         2176                       # Number of requests hitting in the snoop filter with a single holder of the requested data. (Count)
system.tol2bus.snoop_filter.hitMultiRequests           36                       # Number of requests hitting in the snoop filter with multiple (>1) holders of the requested data. (Count)
system.tol2bus.snoop_filter.totSnoops              20                       # Total number of snoops made to the snoop filter. (Count)
system.tol2bus.snoop_filter.hitSingleSnoops           20                       # Number of snoops hitting in the snoop filter with a single holder of the requested data. (Count)
system.tol2bus.snoop_filter.hitMultiSnoops            0                       # Number of snoops hitting in the snoop filter with multiple (>1) holders of the requested data. (Count)
system.voltage_domain.voltage                       1                       # Voltage in Volts (Volt)
system.workload.inst.arm                            0                       # number of arm instructions executed (Count)
system.workload.inst.quiesce                        0                       # number of quiesce instructions executed (Count)

---------- End Simulation Statistics   ----------
