
---------- Begin Simulation Statistics ----------
simSeconds                                   0.022688                       # Number of seconds simulated (Second)
simTicks                                  22688273000                       # Number of ticks simulated (Tick)
finalTick                                 22688273000                       # Number of ticks from beginning of simulation (restored from checkpoints and never reset) (Tick)
simFreq                                  1000000000000                       # The number of ticks per simulated second ((Tick/Second))
hostSeconds                                    128.29                       # Real time elapsed on the host (Second)
hostTickRate                                176852626                       # The number of ticks simulated per host second (ticks/s) ((Tick/Second))
hostMemory                                     656968                       # Number of bytes of host memory used (Byte)
simInsts                                      8458374                       # Number of instructions simulated (Count)
simOps                                       16628164                       # Number of ops (including micro ops) simulated (Count)
hostInstRate                                    65932                       # Simulator instruction rate (inst/s) ((Count/Second))
hostOpRate                                     129614                       # Simulator op (including micro ops) rate (op/s) ((Count/Second))
system.clk_domain.clock                          1000                       # Clock period in ticks (Tick)
system.cpu.numCycles                         45376547                       # Number of cpu cycles simulated (Cycle)
system.cpu.numWorkItemsStarted                      0                       # Number of work items this cpu started (Count)
system.cpu.numWorkItemsCompleted                    0                       # Number of work items this cpu completed (Count)
system.cpu.instsAdded                        17468766                       # Number of instructions added to the IQ (excludes non-spec) (Count)
system.cpu.nonSpecInstsAdded                      370                       # Number of non-speculative instructions added to the IQ (Count)
system.cpu.instsIssued                       17428708                       # Number of instructions issued (Count)
system.cpu.squashedInstsIssued                    845                       # Number of squashed instructions issued (Count)
system.cpu.squashedInstsExamined               840950                       # Number of squashed instructions iterated over during squash; mainly for profiling (Count)
system.cpu.squashedOperandsExamined            448662                       # Number of squashed operands that are examined and possibly removed from graph (Count)
system.cpu.squashedNonSpecRemoved                 366                       # Number of squashed non-spec instructions that were removed (Count)
system.cpu.numIssuedDist::samples            45334676                       # Number of insts issued each cycle (Count)
system.cpu.numIssuedDist::mean               0.384445                       # Number of insts issued each cycle (Count)
system.cpu.numIssuedDist::stdev              1.326332                       # Number of insts issued each cycle (Count)
system.cpu.numIssuedDist::underflows                0      0.00%      0.00% # Number of insts issued each cycle (Count)
system.cpu.numIssuedDist::0                  40942668     90.31%     90.31% # Number of insts issued each cycle (Count)
system.cpu.numIssuedDist::1                    662658      1.46%     91.77% # Number of insts issued each cycle (Count)
system.cpu.numIssuedDist::2                    552860      1.22%     92.99% # Number of insts issued each cycle (Count)
system.cpu.numIssuedDist::3                    724936      1.60%     94.59% # Number of insts issued each cycle (Count)
system.cpu.numIssuedDist::4                    511691      1.13%     95.72% # Number of insts issued each cycle (Count)
system.cpu.numIssuedDist::5                    807396      1.78%     97.50% # Number of insts issued each cycle (Count)
system.cpu.numIssuedDist::6                    536116      1.18%     98.68% # Number of insts issued each cycle (Count)
system.cpu.numIssuedDist::7                    585726      1.29%     99.98% # Number of insts issued each cycle (Count)
system.cpu.numIssuedDist::8                     10625      0.02%    100.00% # Number of insts issued each cycle (Count)
system.cpu.numIssuedDist::overflows                 0      0.00%    100.00% # Number of insts issued each cycle (Count)
system.cpu.numIssuedDist::min_value                 0                       # Number of insts issued each cycle (Count)
system.cpu.numIssuedDist::max_value                 8                       # Number of insts issued each cycle (Count)
system.cpu.numIssuedDist::total              45334676                       # Number of insts issued each cycle (Count)
system.cpu.statFuBusy::No_OpClass                   0      0.00%      0.00% # attempts to use FU when none available (Count)
system.cpu.statFuBusy::IntAlu                  293495     99.79%     99.79% # attempts to use FU when none available (Count)
system.cpu.statFuBusy::IntMult                      0      0.00%     99.79% # attempts to use FU when none available (Count)
system.cpu.statFuBusy::IntDiv                       0      0.00%     99.79% # attempts to use FU when none available (Count)
system.cpu.statFuBusy::FloatAdd                     0      0.00%     99.79% # attempts to use FU when none available (Count)
system.cpu.statFuBusy::FloatCmp                     0      0.00%     99.79% # attempts to use FU when none available (Count)
system.cpu.statFuBusy::FloatCvt                     0      0.00%     99.79% # attempts to use FU when none available (Count)
system.cpu.statFuBusy::FloatMult                    0      0.00%     99.79% # attempts to use FU when none available (Count)
system.cpu.statFuBusy::FloatMultAcc                 0      0.00%     99.79% # attempts to use FU when none available (Count)
system.cpu.statFuBusy::FloatDiv                     0      0.00%     99.79% # attempts to use FU when none available (Count)
system.cpu.statFuBusy::FloatMisc                    0      0.00%     99.79% # attempts to use FU when none available (Count)
system.cpu.statFuBusy::FloatSqrt                    0      0.00%     99.79% # attempts to use FU when none available (Count)
system.cpu.statFuBusy::SimdAdd                      0      0.00%     99.79% # attempts to use FU when none available (Count)
system.cpu.statFuBusy::SimdAddAcc                   0      0.00%     99.79% # attempts to use FU when none available (Count)
system.cpu.statFuBusy::SimdAlu                      0      0.00%     99.79% # attempts to use FU when none available (Count)
system.cpu.statFuBusy::SimdCmp                      0      0.00%     99.79% # attempts to use FU when none available (Count)
system.cpu.statFuBusy::SimdCvt                      0      0.00%     99.79% # attempts to use FU when none available (Count)
system.cpu.statFuBusy::SimdMisc                     0      0.00%     99.79% # attempts to use FU when none available (Count)
system.cpu.statFuBusy::SimdMult                     0      0.00%     99.79% # attempts to use FU when none available (Count)
system.cpu.statFuBusy::SimdMultAcc                  0      0.00%     99.79% # attempts to use FU when none available (Count)
system.cpu.statFuBusy::SimdShift                    0      0.00%     99.79% # attempts to use FU when none available (Count)
system.cpu.statFuBusy::SimdShiftAcc                 0      0.00%     99.79% # attempts to use FU when none available (Count)
system.cpu.statFuBusy::SimdDiv                      0      0.00%     99.79% # attempts to use FU when none available (Count)
system.cpu.statFuBusy::SimdSqrt                     0      0.00%     99.79% # attempts to use FU when none available (Count)
system.cpu.statFuBusy::SimdFloatAdd                 0      0.00%     99.79% # attempts to use FU when none available (Count)
system.cpu.statFuBusy::SimdFloatAlu                 0      0.00%     99.79% # attempts to use FU when none available (Count)
system.cpu.statFuBusy::SimdFloatCmp                 0      0.00%     99.79% # attempts to use FU when none available (Count)
system.cpu.statFuBusy::SimdFloatCvt                 0      0.00%     99.79% # attempts to use FU when none available (Count)
system.cpu.statFuBusy::SimdFloatDiv                 0      0.00%     99.79% # attempts to use FU when none available (Count)
system.cpu.statFuBusy::SimdFloatMisc                0      0.00%     99.79% # attempts to use FU when none available (Count)
system.cpu.statFuBusy::SimdFloatMult                0      0.00%     99.79% # attempts to use FU when none available (Count)
system.cpu.statFuBusy::SimdFloatMultAcc             0      0.00%     99.79% # attempts to use FU when none available (Count)
system.cpu.statFuBusy::SimdFloatSqrt                0      0.00%     99.79% # attempts to use FU when none available (Count)
system.cpu.statFuBusy::SimdReduceAdd                0      0.00%     99.79% # attempts to use FU when none available (Count)
system.cpu.statFuBusy::SimdReduceAlu                0      0.00%     99.79% # attempts to use FU when none available (Count)
system.cpu.statFuBusy::SimdReduceCmp                0      0.00%     99.79% # attempts to use FU when none available (Count)
system.cpu.statFuBusy::SimdFloatReduceAdd            0      0.00%     99.79% # attempts to use FU when none available (Count)
system.cpu.statFuBusy::SimdFloatReduceCmp            0      0.00%     99.79% # attempts to use FU when none available (Count)
system.cpu.statFuBusy::SimdAes                      0      0.00%     99.79% # attempts to use FU when none available (Count)
system.cpu.statFuBusy::SimdAesMix                   0      0.00%     99.79% # attempts to use FU when none available (Count)
system.cpu.statFuBusy::SimdSha1Hash                 0      0.00%     99.79% # attempts to use FU when none available (Count)
system.cpu.statFuBusy::SimdSha1Hash2                0      0.00%     99.79% # attempts to use FU when none available (Count)
system.cpu.statFuBusy::SimdSha256Hash               0      0.00%     99.79% # attempts to use FU when none available (Count)
system.cpu.statFuBusy::SimdSha256Hash2              0      0.00%     99.79% # attempts to use FU when none available (Count)
system.cpu.statFuBusy::SimdShaSigma2                0      0.00%     99.79% # attempts to use FU when none available (Count)
system.cpu.statFuBusy::SimdShaSigma3                0      0.00%     99.79% # attempts to use FU when none available (Count)
system.cpu.statFuBusy::SimdPredAlu                  0      0.00%     99.79% # attempts to use FU when none available (Count)
system.cpu.statFuBusy::MemRead                    554      0.19%     99.97% # attempts to use FU when none available (Count)
system.cpu.statFuBusy::MemWrite                    77      0.03%    100.00% # attempts to use FU when none available (Count)
system.cpu.statFuBusy::FloatMemRead                 0      0.00%    100.00% # attempts to use FU when none available (Count)
system.cpu.statFuBusy::FloatMemWrite                0      0.00%    100.00% # attempts to use FU when none available (Count)
system.cpu.statFuBusy::IprAccess                    0      0.00%    100.00% # attempts to use FU when none available (Count)
system.cpu.statFuBusy::InstPrefetch                 0      0.00%    100.00% # attempts to use FU when none available (Count)
system.cpu.statIssuedInstType_0::No_OpClass          295      0.00%      0.00% # Number of instructions issued per FU type, per thread (Count)
system.cpu.statIssuedInstType_0::IntAlu      14795204     84.89%     84.89% # Number of instructions issued per FU type, per thread (Count)
system.cpu.statIssuedInstType_0::IntMult        68232      0.39%     85.28% # Number of instructions issued per FU type, per thread (Count)
system.cpu.statIssuedInstType_0::IntDiv            28      0.00%     85.28% # Number of instructions issued per FU type, per thread (Count)
system.cpu.statIssuedInstType_0::FloatAdd            0      0.00%     85.28% # Number of instructions issued per FU type, per thread (Count)
system.cpu.statIssuedInstType_0::FloatCmp            0      0.00%     85.28% # Number of instructions issued per FU type, per thread (Count)
system.cpu.statIssuedInstType_0::FloatCvt            0      0.00%     85.28% # Number of instructions issued per FU type, per thread (Count)
system.cpu.statIssuedInstType_0::FloatMult            0      0.00%     85.28% # Number of instructions issued per FU type, per thread (Count)
system.cpu.statIssuedInstType_0::FloatMultAcc            0      0.00%     85.28% # Number of instructions issued per FU type, per thread (Count)
system.cpu.statIssuedInstType_0::FloatDiv            0      0.00%     85.28% # Number of instructions issued per FU type, per thread (Count)
system.cpu.statIssuedInstType_0::FloatMisc            0      0.00%     85.28% # Number of instructions issued per FU type, per thread (Count)
system.cpu.statIssuedInstType_0::FloatSqrt            0      0.00%     85.28% # Number of instructions issued per FU type, per thread (Count)
system.cpu.statIssuedInstType_0::SimdAdd            0      0.00%     85.28% # Number of instructions issued per FU type, per thread (Count)
system.cpu.statIssuedInstType_0::SimdAddAcc            0      0.00%     85.28% # Number of instructions issued per FU type, per thread (Count)
system.cpu.statIssuedInstType_0::SimdAlu            0      0.00%     85.28% # Number of instructions issued per FU type, per thread (Count)
system.cpu.statIssuedInstType_0::SimdCmp            0      0.00%     85.28% # Number of instructions issued per FU type, per thread (Count)
system.cpu.statIssuedInstType_0::SimdCvt            0      0.00%     85.28% # Number of instructions issued per FU type, per thread (Count)
system.cpu.statIssuedInstType_0::SimdMisc            0      0.00%     85.28% # Number of instructions issued per FU type, per thread (Count)
system.cpu.statIssuedInstType_0::SimdMult            0      0.00%     85.28% # Number of instructions issued per FU type, per thread (Count)
system.cpu.statIssuedInstType_0::SimdMultAcc            0      0.00%     85.28% # Number of instructions issued per FU type, per thread (Count)
system.cpu.statIssuedInstType_0::SimdShift            0      0.00%     85.28% # Number of instructions issued per FU type, per thread (Count)
system.cpu.statIssuedInstType_0::SimdShiftAcc            0      0.00%     85.28% # Number of instructions issued per FU type, per thread (Count)
system.cpu.statIssuedInstType_0::SimdDiv            0      0.00%     85.28% # Number of instructions issued per FU type, per thread (Count)
system.cpu.statIssuedInstType_0::SimdSqrt            0      0.00%     85.28% # Number of instructions issued per FU type, per thread (Count)
system.cpu.statIssuedInstType_0::SimdFloatAdd            0      0.00%     85.28% # Number of instructions issued per FU type, per thread (Count)
system.cpu.statIssuedInstType_0::SimdFloatAlu            0      0.00%     85.28% # Number of instructions issued per FU type, per thread (Count)
system.cpu.statIssuedInstType_0::SimdFloatCmp            0      0.00%     85.28% # Number of instructions issued per FU type, per thread (Count)
system.cpu.statIssuedInstType_0::SimdFloatCvt            0      0.00%     85.28% # Number of instructions issued per FU type, per thread (Count)
system.cpu.statIssuedInstType_0::SimdFloatDiv            0      0.00%     85.28% # Number of instructions issued per FU type, per thread (Count)
system.cpu.statIssuedInstType_0::SimdFloatMisc            0      0.00%     85.28% # Number of instructions issued per FU type, per thread (Count)
system.cpu.statIssuedInstType_0::SimdFloatMult            0      0.00%     85.28% # Number of instructions issued per FU type, per thread (Count)
system.cpu.statIssuedInstType_0::SimdFloatMultAcc            0      0.00%     85.28% # Number of instructions issued per FU type, per thread (Count)
system.cpu.statIssuedInstType_0::SimdFloatSqrt            0      0.00%     85.28% # Number of instructions issued per FU type, per thread (Count)
system.cpu.statIssuedInstType_0::SimdReduceAdd            0      0.00%     85.28% # Number of instructions issued per FU type, per thread (Count)
system.cpu.statIssuedInstType_0::SimdReduceAlu            0      0.00%     85.28% # Number of instructions issued per FU type, per thread (Count)
system.cpu.statIssuedInstType_0::SimdReduceCmp            0      0.00%     85.28% # Number of instructions issued per FU type, per thread (Count)
system.cpu.statIssuedInstType_0::SimdFloatReduceAdd            0      0.00%     85.28% # Number of instructions issued per FU type, per thread (Count)
system.cpu.statIssuedInstType_0::SimdFloatReduceCmp            0      0.00%     85.28% # Number of instructions issued per FU type, per thread (Count)
system.cpu.statIssuedInstType_0::SimdAes            0      0.00%     85.28% # Number of instructions issued per FU type, per thread (Count)
system.cpu.statIssuedInstType_0::SimdAesMix            0      0.00%     85.28% # Number of instructions issued per FU type, per thread (Count)
system.cpu.statIssuedInstType_0::SimdSha1Hash            0      0.00%     85.28% # Number of instructions issued per FU type, per thread (Count)
system.cpu.statIssuedInstType_0::SimdSha1Hash2            0      0.00%     85.28% # Number of instructions issued per FU type, per thread (Count)
system.cpu.statIssuedInstType_0::SimdSha256Hash            0      0.00%     85.28% # Number of instructions issued per FU type, per thread (Count)
system.cpu.statIssuedInstType_0::SimdSha256Hash2            0      0.00%     85.28% # Number of instructions issued per FU type, per thread (Count)
system.cpu.statIssuedInstType_0::SimdShaSigma2            0      0.00%     85.28% # Number of instructions issued per FU type, per thread (Count)
system.cpu.statIssuedInstType_0::SimdShaSigma3            0      0.00%     85.28% # Number of instructions issued per FU type, per thread (Count)
system.cpu.statIssuedInstType_0::SimdPredAlu            0      0.00%     85.28% # Number of instructions issued per FU type, per thread (Count)
system.cpu.statIssuedInstType_0::MemRead       755428      4.33%     89.62% # Number of instructions issued per FU type, per thread (Count)
system.cpu.statIssuedInstType_0::MemWrite      1809521     10.38%    100.00% # Number of instructions issued per FU type, per thread (Count)
system.cpu.statIssuedInstType_0::FloatMemRead            0      0.00%    100.00% # Number of instructions issued per FU type, per thread (Count)
system.cpu.statIssuedInstType_0::FloatMemWrite            0      0.00%    100.00% # Number of instructions issued per FU type, per thread (Count)
system.cpu.statIssuedInstType_0::IprAccess            0      0.00%    100.00% # Number of instructions issued per FU type, per thread (Count)
system.cpu.statIssuedInstType_0::InstPrefetch            0      0.00%    100.00% # Number of instructions issued per FU type, per thread (Count)
system.cpu.statIssuedInstType_0::total       17428708                       # Number of instructions issued per FU type, per thread (Count)
system.cpu.issueRate                         0.384091                       # Inst issue rate ((Count/Cycle))
system.cpu.fuBusy                              294126                       # FU busy when requested (Count)
system.cpu.fuBusyRate                        0.016876                       # FU busy rate (busy events/executed inst) ((Count/Count))
system.cpu.intInstQueueReads                 80487063                       # Number of integer instruction queue reads (Count)
system.cpu.intInstQueueWrites                18310195                       # Number of integer instruction queue writes (Count)
system.cpu.intInstQueueWakeupAccesses        17343343                       # Number of integer instruction queue wakeup accesses (Count)
system.cpu.fpInstQueueReads                         0                       # Number of floating instruction queue reads (Count)
system.cpu.fpInstQueueWrites                        0                       # Number of floating instruction queue writes (Count)
system.cpu.fpInstQueueWakeupAccesses                0                       # Number of floating instruction queue wakeup accesses (Count)
system.cpu.vecInstQueueReads                        0                       # Number of vector instruction queue reads (Count)
system.cpu.vecInstQueueWrites                       0                       # Number of vector instruction queue writes (Count)
system.cpu.vecInstQueueWakeupAccesses               0                       # Number of vector instruction queue wakeup accesses (Count)
system.cpu.intAluAccesses                    17722539                       # Number of integer alu accesses (Count)
system.cpu.fpAluAccesses                            0                       # Number of floating point alu accesses (Count)
system.cpu.vecAluAccesses                           0                       # Number of vector alu accesses (Count)
system.cpu.idleCycles                               0                       # Number of cycles IEW is idle (Cycle)
system.cpu.squashCycles                          7228                       # Number of cycles IEW is squashing (Cycle)
system.cpu.blockCycles                         102324                       # Number of cycles IEW is blocking (Cycle)
system.cpu.unblockCycles                        88284                       # Number of cycles IEW is unblocking (Cycle)
system.cpu.dispatchedInsts                   17469136                       # Number of instructions dispatched to IQ (Count)
system.cpu.dispSquashedInsts                      373                       # Number of squashed instructions skipped by dispatch (Count)
system.cpu.dispLoadInsts                       761049                       # Number of dispatched load instructions (Count)
system.cpu.dispStoreInsts                     1813177                       # Number of dispatched store instructions (Count)
system.cpu.dispNonSpecInsts                       133                       # Number of dispatched non-speculative instructions (Count)
system.cpu.iqFullEvents                           282                       # Number of times the IQ has become full, causing a stall (Count)
system.cpu.lsqFullEvents                        86036                       # Number of times the LSQ has become full, causing a stall (Count)
system.cpu.memOrderViolationEvents                123                       # Number of memory order violations (Count)
system.cpu.predictedTakenIncorrect                941                       # Number of branches that were predicted taken incorrectly (Count)
system.cpu.predictedNotTakenIncorrect            2778                       # Number of branches that were predicted not taken incorrectly (Count)
system.cpu.branchMispredicts                     3719                       # Number of branch mispredicts detected at execute (Count)
system.cpu.numInsts                          17422721                       # Number of executed instructions (Count)
system.cpu.numLoadInsts                        754424                       # Number of load instructions executed (Count)
system.cpu.numSquashedInsts                      5987                       # Number of squashed instructions skipped in execute (Count)
system.cpu.numSwp                                   0                       # Number of swp insts executed (Count)
system.cpu.numNop                                   0                       # Number of nop insts executed (Count)
system.cpu.numRefs                            2563003                       # Number of memory reference insts executed (Count)
system.cpu.numBranches                        1842618                       # Number of branches executed (Count)
system.cpu.numStoreInsts                      1808579                       # Number of stores executed (Count)
system.cpu.numRate                           0.383959                       # Inst execution rate ((Count/Cycle))
system.cpu.instsToCommit                     17421266                       # Cumulative count of insts sent to commit (Count)
system.cpu.writebackCount                    17343343                       # Cumulative count of insts written-back (Count)
system.cpu.producerInst                      12241303                       # Number of instructions producing a value (Count)
system.cpu.consumerInst                      16432437                       # Number of instructions consuming a value (Count)
system.cpu.wbRate                            0.382209                       # Insts written-back per cycle ((Count/Cycle))
system.cpu.wbFanout                          0.744948                       # Average fanout of values written-back ((Count/Count))
system.cpu.timesIdled                             355                       # Number of times that the entire CPU went into an idle state and unscheduled itself (Count)
system.cpu.idleCycles                           41871                       # Total number of cycles that the CPU has spent unscheduled due to idling (Cycle)
system.cpu.committedInsts                     8458374                       # Number of Instructions Simulated (Count)
system.cpu.committedOps                      16628164                       # Number of Ops (including micro ops) Simulated (Count)
system.cpu.cpi                               5.364689                       # CPI: Cycles Per Instruction ((Cycle/Count))
system.cpu.totalCpi                          5.364689                       # CPI: Total CPI of All Threads ((Cycle/Count))
system.cpu.ipc                               0.186404                       # IPC: Instructions Per Cycle ((Count/Cycle))
system.cpu.totalIpc                          0.186404                       # IPC: Total IPC of All Threads ((Count/Cycle))
system.cpu.intRegfileReads                   20436436                       # Number of integer regfile reads (Count)
system.cpu.intRegfileWrites                  13835865                       # Number of integer regfile writes (Count)
system.cpu.ccRegfileReads                     9172365                       # number of cc regfile reads (Count)
system.cpu.ccRegfileWrites                    9292203                       # number of cc regfile writes (Count)
system.cpu.miscRegfileReads                   6063101                       # number of misc regfile reads (Count)
system.cpu.miscRegfileWrites                        6                       # number of misc regfile writes (Count)
system.cpu.MemDepUnit__0.insertedLoads         761049                       # Number of loads inserted to the mem dependence unit. (Count)
system.cpu.MemDepUnit__0.insertedStores       1813177                       # Number of stores inserted to the mem dependence unit. (Count)
system.cpu.MemDepUnit__0.conflictingLoads        16533                       # Number of conflicting loads. (Count)
system.cpu.MemDepUnit__0.conflictingStores         8190                       # Number of conflicting stores. (Count)
system.cpu.MemDepUnit__1.insertedLoads              0                       # Number of loads inserted to the mem dependence unit. (Count)
system.cpu.MemDepUnit__1.insertedStores             0                       # Number of stores inserted to the mem dependence unit. (Count)
system.cpu.MemDepUnit__1.conflictingLoads            0                       # Number of conflicting loads. (Count)
system.cpu.MemDepUnit__1.conflictingStores            0                       # Number of conflicting stores. (Count)
system.cpu.MemDepUnit__2.insertedLoads              0                       # Number of loads inserted to the mem dependence unit. (Count)
system.cpu.MemDepUnit__2.insertedStores             0                       # Number of stores inserted to the mem dependence unit. (Count)
system.cpu.MemDepUnit__2.conflictingLoads            0                       # Number of conflicting loads. (Count)
system.cpu.MemDepUnit__2.conflictingStores            0                       # Number of conflicting stores. (Count)
system.cpu.MemDepUnit__3.insertedLoads              0                       # Number of loads inserted to the mem dependence unit. (Count)
system.cpu.MemDepUnit__3.insertedStores             0                       # Number of stores inserted to the mem dependence unit. (Count)
system.cpu.MemDepUnit__3.conflictingLoads            0                       # Number of conflicting loads. (Count)
system.cpu.MemDepUnit__3.conflictingStores            0                       # Number of conflicting stores. (Count)
system.cpu.branchPred.lookups                 1876978                       # Number of BP lookups (Count)
system.cpu.branchPred.condPredicted           1850858                       # Number of conditional branches predicted (Count)
system.cpu.branchPred.condIncorrect              3502                       # Number of conditional branches incorrect (Count)
system.cpu.branchPred.BTBLookups              1824976                       # Number of BTB lookups (Count)
system.cpu.branchPred.BTBHits                 1824485                       # Number of BTB hits (Count)
system.cpu.branchPred.BTBHitRatio            0.999731                       # BTB Hit Ratio (Ratio)
system.cpu.branchPred.RASUsed                    8781                       # Number of times the RAS was used to get a target. (Count)
system.cpu.branchPred.RASIncorrect                 30                       # Number of incorrect RAS predictions. (Count)
system.cpu.branchPred.indirectLookups             237                       # Number of indirect predictor lookups. (Count)
system.cpu.branchPred.indirectHits                  8                       # Number of indirect target hits. (Count)
system.cpu.branchPred.indirectMisses              229                       # Number of indirect misses. (Count)
system.cpu.branchPred.indirectMispredicted          103                       # Number of mispredicted indirect branches. (Count)
system.cpu.commit.commitSquashedInsts          842176                       # The number of squashed insts skipped by commit (Count)
system.cpu.commit.commitNonSpecStalls               4                       # The number of times commit has been forced to stall to communicate backwards (Count)
system.cpu.commit.branchMispredicts              3326                       # The number of times a branch was mispredicted (Count)
system.cpu.commit.numCommittedDist::samples     45226847                       # Number of insts commited each cycle (Count)
system.cpu.commit.numCommittedDist::mean     0.367661                       # Number of insts commited each cycle (Count)
system.cpu.commit.numCommittedDist::stdev     1.365193                       # Number of insts commited each cycle (Count)
system.cpu.commit.numCommittedDist::underflows            0      0.00%      0.00% # Number of insts commited each cycle (Count)
system.cpu.commit.numCommittedDist::0        41037588     90.74%     90.74% # Number of insts commited each cycle (Count)
system.cpu.commit.numCommittedDist::1          760354      1.68%     92.42% # Number of insts commited each cycle (Count)
system.cpu.commit.numCommittedDist::2          588374      1.30%     93.72% # Number of insts commited each cycle (Count)
system.cpu.commit.numCommittedDist::3         1011686      2.24%     95.96% # Number of insts commited each cycle (Count)
system.cpu.commit.numCommittedDist::4          328251      0.73%     96.68% # Number of insts commited each cycle (Count)
system.cpu.commit.numCommittedDist::5          172539      0.38%     97.06% # Number of insts commited each cycle (Count)
system.cpu.commit.numCommittedDist::6          393557      0.87%     97.93% # Number of insts commited each cycle (Count)
system.cpu.commit.numCommittedDist::7          357021      0.79%     98.72% # Number of insts commited each cycle (Count)
system.cpu.commit.numCommittedDist::8          577477      1.28%    100.00% # Number of insts commited each cycle (Count)
system.cpu.commit.numCommittedDist::overflows            0      0.00%    100.00% # Number of insts commited each cycle (Count)
system.cpu.commit.numCommittedDist::min_value            0                       # Number of insts commited each cycle (Count)
system.cpu.commit.numCommittedDist::max_value            8                       # Number of insts commited each cycle (Count)
system.cpu.commit.numCommittedDist::total     45226847                       # Number of insts commited each cycle (Count)
system.cpu.commit.instsCommitted              8458374                       # Number of instructions committed (Count)
system.cpu.commit.opsCommitted               16628164                       # Number of ops (including micro ops) committed (Count)
system.cpu.commit.memRefs                     2462563                       # Number of memory references committed (Count)
system.cpu.commit.loads                        735229                       # Number of loads committed (Count)
system.cpu.commit.amos                              0                       # Number of atomic instructions committed (Count)
system.cpu.commit.membars                           0                       # Number of memory barriers committed (Count)
system.cpu.commit.branches                    1763501                       # Number of branches committed (Count)
system.cpu.commit.vectorInstructions                0                       # Number of committed Vector instructions. (Count)
system.cpu.commit.floating                          0                       # Number of committed floating point instructions. (Count)
system.cpu.commit.integer                    16535975                       # Number of committed integer instructions. (Count)
system.cpu.commit.functionCalls                  7145                       # Number of function calls committed. (Count)
system.cpu.commit.committedInstType_0::No_OpClass           13      0.00%      0.00% # Class of committed instruction (Count)
system.cpu.commit.committedInstType_0::IntAlu     14097636     84.78%     84.78% # Class of committed instruction (Count)
system.cpu.commit.committedInstType_0::IntMult        67931      0.41%     85.19% # Class of committed instruction (Count)
system.cpu.commit.committedInstType_0::IntDiv           21      0.00%     85.19% # Class of committed instruction (Count)
system.cpu.commit.committedInstType_0::FloatAdd            0      0.00%     85.19% # Class of committed instruction (Count)
system.cpu.commit.committedInstType_0::FloatCmp            0      0.00%     85.19% # Class of committed instruction (Count)
system.cpu.commit.committedInstType_0::FloatCvt            0      0.00%     85.19% # Class of committed instruction (Count)
system.cpu.commit.committedInstType_0::FloatMult            0      0.00%     85.19% # Class of committed instruction (Count)
system.cpu.commit.committedInstType_0::FloatMultAcc            0      0.00%     85.19% # Class of committed instruction (Count)
system.cpu.commit.committedInstType_0::FloatDiv            0      0.00%     85.19% # Class of committed instruction (Count)
system.cpu.commit.committedInstType_0::FloatMisc            0      0.00%     85.19% # Class of committed instruction (Count)
system.cpu.commit.committedInstType_0::FloatSqrt            0      0.00%     85.19% # Class of committed instruction (Count)
system.cpu.commit.committedInstType_0::SimdAdd            0      0.00%     85.19% # Class of committed instruction (Count)
system.cpu.commit.committedInstType_0::SimdAddAcc            0      0.00%     85.19% # Class of committed instruction (Count)
system.cpu.commit.committedInstType_0::SimdAlu            0      0.00%     85.19% # Class of committed instruction (Count)
system.cpu.commit.committedInstType_0::SimdCmp            0      0.00%     85.19% # Class of committed instruction (Count)
system.cpu.commit.committedInstType_0::SimdCvt            0      0.00%     85.19% # Class of committed instruction (Count)
system.cpu.commit.committedInstType_0::SimdMisc            0      0.00%     85.19% # Class of committed instruction (Count)
system.cpu.commit.committedInstType_0::SimdMult            0      0.00%     85.19% # Class of committed instruction (Count)
system.cpu.commit.committedInstType_0::SimdMultAcc            0      0.00%     85.19% # Class of committed instruction (Count)
system.cpu.commit.committedInstType_0::SimdShift            0      0.00%     85.19% # Class of committed instruction (Count)
system.cpu.commit.committedInstType_0::SimdShiftAcc            0      0.00%     85.19% # Class of committed instruction (Count)
system.cpu.commit.committedInstType_0::SimdDiv            0      0.00%     85.19% # Class of committed instruction (Count)
system.cpu.commit.committedInstType_0::SimdSqrt            0      0.00%     85.19% # Class of committed instruction (Count)
system.cpu.commit.committedInstType_0::SimdFloatAdd            0      0.00%     85.19% # Class of committed instruction (Count)
system.cpu.commit.committedInstType_0::SimdFloatAlu            0      0.00%     85.19% # Class of committed instruction (Count)
system.cpu.commit.committedInstType_0::SimdFloatCmp            0      0.00%     85.19% # Class of committed instruction (Count)
system.cpu.commit.committedInstType_0::SimdFloatCvt            0      0.00%     85.19% # Class of committed instruction (Count)
system.cpu.commit.committedInstType_0::SimdFloatDiv            0      0.00%     85.19% # Class of committed instruction (Count)
system.cpu.commit.committedInstType_0::SimdFloatMisc            0      0.00%     85.19% # Class of committed instruction (Count)
system.cpu.commit.committedInstType_0::SimdFloatMult            0      0.00%     85.19% # Class of committed instruction (Count)
system.cpu.commit.committedInstType_0::SimdFloatMultAcc            0      0.00%     85.19% # Class of committed instruction (Count)
system.cpu.commit.committedInstType_0::SimdFloatSqrt            0      0.00%     85.19% # Class of committed instruction (Count)
system.cpu.commit.committedInstType_0::SimdReduceAdd            0      0.00%     85.19% # Class of committed instruction (Count)
system.cpu.commit.committedInstType_0::SimdReduceAlu            0      0.00%     85.19% # Class of committed instruction (Count)
system.cpu.commit.committedInstType_0::SimdReduceCmp            0      0.00%     85.19% # Class of committed instruction (Count)
system.cpu.commit.committedInstType_0::SimdFloatReduceAdd            0      0.00%     85.19% # Class of committed instruction (Count)
system.cpu.commit.committedInstType_0::SimdFloatReduceCmp            0      0.00%     85.19% # Class of committed instruction (Count)
system.cpu.commit.committedInstType_0::SimdAes            0      0.00%     85.19% # Class of committed instruction (Count)
system.cpu.commit.committedInstType_0::SimdAesMix            0      0.00%     85.19% # Class of committed instruction (Count)
system.cpu.commit.committedInstType_0::SimdSha1Hash            0      0.00%     85.19% # Class of committed instruction (Count)
system.cpu.commit.committedInstType_0::SimdSha1Hash2            0      0.00%     85.19% # Class of committed instruction (Count)
system.cpu.commit.committedInstType_0::SimdSha256Hash            0      0.00%     85.19% # Class of committed instruction (Count)
system.cpu.commit.committedInstType_0::SimdSha256Hash2            0      0.00%     85.19% # Class of committed instruction (Count)
system.cpu.commit.committedInstType_0::SimdShaSigma2            0      0.00%     85.19% # Class of committed instruction (Count)
system.cpu.commit.committedInstType_0::SimdShaSigma3            0      0.00%     85.19% # Class of committed instruction (Count)
system.cpu.commit.committedInstType_0::SimdPredAlu            0      0.00%     85.19% # Class of committed instruction (Count)
system.cpu.commit.committedInstType_0::MemRead       735229      4.42%     89.61% # Class of committed instruction (Count)
system.cpu.commit.committedInstType_0::MemWrite      1727334     10.39%    100.00% # Class of committed instruction (Count)
system.cpu.commit.committedInstType_0::FloatMemRead            0      0.00%    100.00% # Class of committed instruction (Count)
system.cpu.commit.committedInstType_0::FloatMemWrite            0      0.00%    100.00% # Class of committed instruction (Count)
system.cpu.commit.committedInstType_0::IprAccess            0      0.00%    100.00% # Class of committed instruction (Count)
system.cpu.commit.committedInstType_0::InstPrefetch            0      0.00%    100.00% # Class of committed instruction (Count)
system.cpu.commit.committedInstType_0::total     16628164                       # Class of committed instruction (Count)
system.cpu.commit.commitEligibleSamples        577477                       # number cycles where commit BW limit reached (Cycle)
system.cpu.dcache.demandHits::cpu.data        2205289                       # number of demand (read+write) hits (Count)
system.cpu.dcache.demandHits::total           2205289                       # number of demand (read+write) hits (Count)
system.cpu.dcache.overallHits::cpu.data       2205289                       # number of overall hits (Count)
system.cpu.dcache.overallHits::total          2205289                       # number of overall hits (Count)
system.cpu.dcache.demandMisses::cpu.data       257074                       # number of demand (read+write) misses (Count)
system.cpu.dcache.demandMisses::total          257074                       # number of demand (read+write) misses (Count)
system.cpu.dcache.overallMisses::cpu.data       257074                       # number of overall misses (Count)
system.cpu.dcache.overallMisses::total         257074                       # number of overall misses (Count)
system.cpu.dcache.demandMissLatency::cpu.data  20887315499                       # number of demand (read+write) miss ticks (Tick)
system.cpu.dcache.demandMissLatency::total  20887315499                       # number of demand (read+write) miss ticks (Tick)
system.cpu.dcache.overallMissLatency::cpu.data  20887315499                       # number of overall miss ticks (Tick)
system.cpu.dcache.overallMissLatency::total  20887315499                       # number of overall miss ticks (Tick)
system.cpu.dcache.demandAccesses::cpu.data      2462363                       # number of demand (read+write) accesses (Count)
system.cpu.dcache.demandAccesses::total       2462363                       # number of demand (read+write) accesses (Count)
system.cpu.dcache.overallAccesses::cpu.data      2462363                       # number of overall (read+write) accesses (Count)
system.cpu.dcache.overallAccesses::total      2462363                       # number of overall (read+write) accesses (Count)
system.cpu.dcache.demandMissRate::cpu.data     0.104401                       # miss rate for demand accesses (Ratio)
system.cpu.dcache.demandMissRate::total      0.104401                       # miss rate for demand accesses (Ratio)
system.cpu.dcache.overallMissRate::cpu.data     0.104401                       # miss rate for overall accesses (Ratio)
system.cpu.dcache.overallMissRate::total     0.104401                       # miss rate for overall accesses (Ratio)
system.cpu.dcache.demandAvgMissLatency::cpu.data 81250.206162                       # average overall miss latency ((Cycle/Count))
system.cpu.dcache.demandAvgMissLatency::total 81250.206162                       # average overall miss latency ((Cycle/Count))
system.cpu.dcache.overallAvgMissLatency::cpu.data 81250.206162                       # average overall miss latency ((Cycle/Count))
system.cpu.dcache.overallAvgMissLatency::total 81250.206162                       # average overall miss latency ((Cycle/Count))
system.cpu.dcache.blockedCycles::no_mshrs         2179                       # number of cycles access was blocked (Cycle)
system.cpu.dcache.blockedCycles::no_targets            0                       # number of cycles access was blocked (Cycle)
system.cpu.dcache.blockedCauses::no_mshrs           28                       # number of times access was blocked (Count)
system.cpu.dcache.blockedCauses::no_targets            0                       # number of times access was blocked (Count)
system.cpu.dcache.avgBlocked::no_mshrs      77.821429                       # average number of cycles each access was blocked ((Cycle/Count))
system.cpu.dcache.avgBlocked::no_targets          nan                       # average number of cycles each access was blocked ((Cycle/Count))
system.cpu.dcache.writebacks::writebacks       255998                       # number of writebacks (Count)
system.cpu.dcache.writebacks::total            255998                       # number of writebacks (Count)
system.cpu.dcache.demandMshrHits::cpu.data          471                       # number of demand (read+write) MSHR hits (Count)
system.cpu.dcache.demandMshrHits::total           471                       # number of demand (read+write) MSHR hits (Count)
system.cpu.dcache.overallMshrHits::cpu.data          471                       # number of overall MSHR hits (Count)
system.cpu.dcache.overallMshrHits::total          471                       # number of overall MSHR hits (Count)
system.cpu.dcache.demandMshrMisses::cpu.data       256603                       # number of demand (read+write) MSHR misses (Count)
system.cpu.dcache.demandMshrMisses::total       256603                       # number of demand (read+write) MSHR misses (Count)
system.cpu.dcache.overallMshrMisses::cpu.data       256603                       # number of overall MSHR misses (Count)
system.cpu.dcache.overallMshrMisses::total       256603                       # number of overall MSHR misses (Count)
system.cpu.dcache.demandMshrMissLatency::cpu.data  20610805500                       # number of demand (read+write) MSHR miss ticks (Tick)
system.cpu.dcache.demandMshrMissLatency::total  20610805500                       # number of demand (read+write) MSHR miss ticks (Tick)
system.cpu.dcache.overallMshrMissLatency::cpu.data  20610805500                       # number of overall MSHR miss ticks (Tick)
system.cpu.dcache.overallMshrMissLatency::total  20610805500                       # number of overall MSHR miss ticks (Tick)
system.cpu.dcache.demandMshrMissRate::cpu.data     0.104210                       # mshr miss ratio for demand accesses (Ratio)
system.cpu.dcache.demandMshrMissRate::total     0.104210                       # mshr miss ratio for demand accesses (Ratio)
system.cpu.dcache.overallMshrMissRate::cpu.data     0.104210                       # mshr miss ratio for overall accesses (Ratio)
system.cpu.dcache.overallMshrMissRate::total     0.104210                       # mshr miss ratio for overall accesses (Ratio)
system.cpu.dcache.demandAvgMshrMissLatency::cpu.data 80321.763580                       # average overall mshr miss latency ((Cycle/Count))
system.cpu.dcache.demandAvgMshrMissLatency::total 80321.763580                       # average overall mshr miss latency ((Cycle/Count))
system.cpu.dcache.overallAvgMshrMissLatency::cpu.data 80321.763580                       # average overall mshr miss latency ((Cycle/Count))
system.cpu.dcache.overallAvgMshrMissLatency::total 80321.763580                       # average overall mshr miss latency ((Cycle/Count))
system.cpu.dcache.replacements                 256083                       # number of replacements (Count)
system.cpu.dcache.ReadReq.hits::cpu.data       733354                       # number of ReadReq hits (Count)
system.cpu.dcache.ReadReq.hits::total          733354                       # number of ReadReq hits (Count)
system.cpu.dcache.ReadReq.misses::cpu.data         1675                       # number of ReadReq misses (Count)
system.cpu.dcache.ReadReq.misses::total          1675                       # number of ReadReq misses (Count)
system.cpu.dcache.ReadReq.missLatency::cpu.data     52014500                       # number of ReadReq miss ticks (Tick)
system.cpu.dcache.ReadReq.missLatency::total     52014500                       # number of ReadReq miss ticks (Tick)
system.cpu.dcache.ReadReq.accesses::cpu.data       735029                       # number of ReadReq accesses(hits+misses) (Count)
system.cpu.dcache.ReadReq.accesses::total       735029                       # number of ReadReq accesses(hits+misses) (Count)
system.cpu.dcache.ReadReq.missRate::cpu.data     0.002279                       # miss rate for ReadReq accesses (Ratio)
system.cpu.dcache.ReadReq.missRate::total     0.002279                       # miss rate for ReadReq accesses (Ratio)
system.cpu.dcache.ReadReq.avgMissLatency::cpu.data 31053.432836                       # average ReadReq miss latency ((Tick/Count))
system.cpu.dcache.ReadReq.avgMissLatency::total 31053.432836                       # average ReadReq miss latency ((Tick/Count))
system.cpu.dcache.ReadReq.mshrHits::cpu.data          465                       # number of ReadReq MSHR hits (Count)
system.cpu.dcache.ReadReq.mshrHits::total          465                       # number of ReadReq MSHR hits (Count)
system.cpu.dcache.ReadReq.mshrMisses::cpu.data         1210                       # number of ReadReq MSHR misses (Count)
system.cpu.dcache.ReadReq.mshrMisses::total         1210                       # number of ReadReq MSHR misses (Count)
system.cpu.dcache.ReadReq.mshrMissLatency::cpu.data     31249500                       # number of ReadReq MSHR miss ticks (Tick)
system.cpu.dcache.ReadReq.mshrMissLatency::total     31249500                       # number of ReadReq MSHR miss ticks (Tick)
system.cpu.dcache.ReadReq.mshrMissRate::cpu.data     0.001646                       # mshr miss rate for ReadReq accesses (Ratio)
system.cpu.dcache.ReadReq.mshrMissRate::total     0.001646                       # mshr miss rate for ReadReq accesses (Ratio)
system.cpu.dcache.ReadReq.avgMshrMissLatency::cpu.data 25826.033058                       # average ReadReq mshr miss latency ((Tick/Count))
system.cpu.dcache.ReadReq.avgMshrMissLatency::total 25826.033058                       # average ReadReq mshr miss latency ((Tick/Count))
system.cpu.dcache.WriteReq.hits::cpu.data      1471935                       # number of WriteReq hits (Count)
system.cpu.dcache.WriteReq.hits::total        1471935                       # number of WriteReq hits (Count)
system.cpu.dcache.WriteReq.misses::cpu.data       255399                       # number of WriteReq misses (Count)
system.cpu.dcache.WriteReq.misses::total       255399                       # number of WriteReq misses (Count)
system.cpu.dcache.WriteReq.missLatency::cpu.data  20835300999                       # number of WriteReq miss ticks (Tick)
system.cpu.dcache.WriteReq.missLatency::total  20835300999                       # number of WriteReq miss ticks (Tick)
system.cpu.dcache.WriteReq.accesses::cpu.data      1727334                       # number of WriteReq accesses(hits+misses) (Count)
system.cpu.dcache.WriteReq.accesses::total      1727334                       # number of WriteReq accesses(hits+misses) (Count)
system.cpu.dcache.WriteReq.missRate::cpu.data     0.147857                       # miss rate for WriteReq accesses (Ratio)
system.cpu.dcache.WriteReq.missRate::total     0.147857                       # miss rate for WriteReq accesses (Ratio)
system.cpu.dcache.WriteReq.avgMissLatency::cpu.data 81579.414951                       # average WriteReq miss latency ((Tick/Count))
system.cpu.dcache.WriteReq.avgMissLatency::total 81579.414951                       # average WriteReq miss latency ((Tick/Count))
system.cpu.dcache.WriteReq.mshrHits::cpu.data            6                       # number of WriteReq MSHR hits (Count)
system.cpu.dcache.WriteReq.mshrHits::total            6                       # number of WriteReq MSHR hits (Count)
system.cpu.dcache.WriteReq.mshrMisses::cpu.data       255393                       # number of WriteReq MSHR misses (Count)
system.cpu.dcache.WriteReq.mshrMisses::total       255393                       # number of WriteReq MSHR misses (Count)
system.cpu.dcache.WriteReq.mshrMissLatency::cpu.data  20579556000                       # number of WriteReq MSHR miss ticks (Tick)
system.cpu.dcache.WriteReq.mshrMissLatency::total  20579556000                       # number of WriteReq MSHR miss ticks (Tick)
system.cpu.dcache.WriteReq.mshrMissRate::cpu.data     0.147854                       # mshr miss rate for WriteReq accesses (Ratio)
system.cpu.dcache.WriteReq.mshrMissRate::total     0.147854                       # mshr miss rate for WriteReq accesses (Ratio)
system.cpu.dcache.WriteReq.avgMshrMissLatency::cpu.data 80579.953249                       # average WriteReq mshr miss latency ((Tick/Count))
system.cpu.dcache.WriteReq.avgMshrMissLatency::total 80579.953249                       # average WriteReq mshr miss latency ((Tick/Count))
system.cpu.dcache.power_state.pwrStateResidencyTicks::UNDEFINED  22688273000                       # Cumulative time (in ticks) in various power states (Tick)
system.cpu.dcache.tags.tagsInUse           511.194318                       # Average ticks per tags in use ((Tick/Count))
system.cpu.dcache.tags.totalRefs              2461899                       # Total number of references to valid blocks. (Count)
system.cpu.dcache.tags.sampledRefs             256595                       # Sample count of references to valid blocks. (Count)
system.cpu.dcache.tags.avgRefs               9.594493                       # Average number of references to valid blocks. ((Count/Count))
system.cpu.dcache.tags.warmupTick              176500                       # The tick when the warmup percentage was hit. (Tick)
system.cpu.dcache.tags.occupancies::cpu.data   511.194318                       # Average occupied blocks per tick, per requestor ((Count/Tick))
system.cpu.dcache.tags.avgOccs::cpu.data     0.998426                       # Average percentage of cache occupancy ((Ratio/Tick))
system.cpu.dcache.tags.avgOccs::total        0.998426                       # Average percentage of cache occupancy ((Ratio/Tick))
system.cpu.dcache.tags.occupanciesTaskId::1024          512                       # Occupied blocks per task id (Count)
system.cpu.dcache.tags.ageTaskId_1024::0           39                       # Occupied blocks per task id, per block age (Count)
system.cpu.dcache.tags.ageTaskId_1024::1          427                       # Occupied blocks per task id, per block age (Count)
system.cpu.dcache.tags.ageTaskId_1024::2           46                       # Occupied blocks per task id, per block age (Count)
system.cpu.dcache.tags.ratioOccsTaskId::1024            1                       # Ratio of occupied blocks and all blocks, per task id (Ratio)
system.cpu.dcache.tags.tagAccesses           10106047                       # Number of tag accesses (Count)
system.cpu.dcache.tags.dataAccesses          10106047                       # Number of data accesses (Count)
system.cpu.dcache.tags.power_state.pwrStateResidencyTicks::UNDEFINED  22688273000                       # Cumulative time (in ticks) in various power states (Tick)
system.cpu.decode.idleCycles                   510958                       # Number of cycles decode is idle (Cycle)
system.cpu.decode.blockedCycles              42524749                       # Number of cycles decode is blocked (Cycle)
system.cpu.decode.runCycles                   1315231                       # Number of cycles decode is running (Cycle)
system.cpu.decode.unblockCycles                976510                       # Number of cycles decode is unblocking (Cycle)
system.cpu.decode.squashCycles                   7228                       # Number of cycles decode is squashing (Cycle)
system.cpu.decode.branchResolved              1802900                       # Number of times decode resolved a branch (Count)
system.cpu.decode.branchMispred                   346                       # Number of times decode detected a branch misprediction (Count)
system.cpu.decode.decodedInsts               17521783                       # Number of instructions handled by decode (Count)
system.cpu.decode.squashedInsts                  1602                       # Number of squashed instructions handled by decode (Count)
system.cpu.dtb_walker_cache.blockedCycles::no_mshrs            0                       # number of cycles access was blocked (Cycle)
system.cpu.dtb_walker_cache.blockedCycles::no_targets            0                       # number of cycles access was blocked (Cycle)
system.cpu.dtb_walker_cache.blockedCauses::no_mshrs            0                       # number of times access was blocked (Count)
system.cpu.dtb_walker_cache.blockedCauses::no_targets            0                       # number of times access was blocked (Count)
system.cpu.dtb_walker_cache.avgBlocked::no_mshrs          nan                       # average number of cycles each access was blocked ((Cycle/Count))
system.cpu.dtb_walker_cache.avgBlocked::no_targets          nan                       # average number of cycles each access was blocked ((Cycle/Count))
system.cpu.dtb_walker_cache.replacements            0                       # number of replacements (Count)
system.cpu.dtb_walker_cache.power_state.pwrStateResidencyTicks::UNDEFINED  22688273000                       # Cumulative time (in ticks) in various power states (Tick)
system.cpu.dtb_walker_cache.tags.tagsInUse            0                       # Average ticks per tags in use ((Tick/Count))
system.cpu.dtb_walker_cache.tags.totalRefs            0                       # Total number of references to valid blocks. (Count)
system.cpu.dtb_walker_cache.tags.sampledRefs            0                       # Sample count of references to valid blocks. (Count)
system.cpu.dtb_walker_cache.tags.avgRefs          nan                       # Average number of references to valid blocks. ((Count/Count))
system.cpu.dtb_walker_cache.tags.warmupTick            0                       # The tick when the warmup percentage was hit. (Tick)
system.cpu.dtb_walker_cache.tags.tagAccesses            0                       # Number of tag accesses (Count)
system.cpu.dtb_walker_cache.tags.dataAccesses            0                       # Number of data accesses (Count)
system.cpu.dtb_walker_cache.tags.power_state.pwrStateResidencyTicks::UNDEFINED  22688273000                       # Cumulative time (in ticks) in various power states (Tick)
system.cpu.fetch.icacheStallCycles             113577                       # Number of cycles fetch is stalled on an Icache miss (Cycle)
system.cpu.fetch.insts                        9032155                       # Number of instructions fetch has processed (Count)
system.cpu.fetch.branches                     1876978                       # Number of branches that fetch encountered (Count)
system.cpu.fetch.predictedBranches            1833274                       # Number of branches that fetch has predicted taken (Count)
system.cpu.fetch.cycles                      45212220                       # Number of cycles fetch has run and was not squashing or blocked (Cycle)
system.cpu.fetch.squashCycles                   15054                       # Number of cycles fetch has spent squashing (Cycle)
system.cpu.fetch.miscStallCycles                  150                       # Number of cycles fetch has spent waiting on interrupts, or bad addresses, or out of MSHRs (Cycle)
system.cpu.fetch.pendingTrapStallCycles          1169                       # Number of stall cycles due to pending traps (Cycle)
system.cpu.fetch.pendingQuiesceStallCycles           33                       # Number of stall cycles due to pending quiesce instructions (Cycle)
system.cpu.fetch.cacheLines                     92581                       # Number of cache lines fetched (Count)
system.cpu.fetch.icacheSquashes                  1026                       # Number of outstanding Icache misses that were squashed (Count)
system.cpu.fetch.nisnDist::samples           45334676                       # Number of instructions fetched each cycle (Total) (Count)
system.cpu.fetch.nisnDist::mean              0.391489                       # Number of instructions fetched each cycle (Total) (Count)
system.cpu.fetch.nisnDist::stdev             1.589626                       # Number of instructions fetched each cycle (Total) (Count)
system.cpu.fetch.nisnDist::underflows               0      0.00%      0.00% # Number of instructions fetched each cycle (Total) (Count)
system.cpu.fetch.nisnDist::0                 41732884     92.06%     92.06% # Number of instructions fetched each cycle (Total) (Count)
system.cpu.fetch.nisnDist::1                   567368      1.25%     93.31% # Number of instructions fetched each cycle (Total) (Count)
system.cpu.fetch.nisnDist::2                  1004756      2.22%     95.52% # Number of instructions fetched each cycle (Total) (Count)
system.cpu.fetch.nisnDist::3                    94002      0.21%     95.73% # Number of instructions fetched each cycle (Total) (Count)
system.cpu.fetch.nisnDist::4                    63540      0.14%     95.87% # Number of instructions fetched each cycle (Total) (Count)
system.cpu.fetch.nisnDist::5                    15886      0.04%     95.91% # Number of instructions fetched each cycle (Total) (Count)
system.cpu.fetch.nisnDist::6                   137255      0.30%     96.21% # Number of instructions fetched each cycle (Total) (Count)
system.cpu.fetch.nisnDist::7                    19841      0.04%     96.25% # Number of instructions fetched each cycle (Total) (Count)
system.cpu.fetch.nisnDist::8                  1699144      3.75%    100.00% # Number of instructions fetched each cycle (Total) (Count)
system.cpu.fetch.nisnDist::overflows                0      0.00%    100.00% # Number of instructions fetched each cycle (Total) (Count)
system.cpu.fetch.nisnDist::min_value                0                       # Number of instructions fetched each cycle (Total) (Count)
system.cpu.fetch.nisnDist::max_value                8                       # Number of instructions fetched each cycle (Total) (Count)
system.cpu.fetch.nisnDist::total             45334676                       # Number of instructions fetched each cycle (Total) (Count)
system.cpu.fetch.branchRate                  0.041364                       # Number of branch fetches per cycle (Ratio)
system.cpu.fetch.rate                        0.199049                       # Number of inst fetches per cycle ((Count/Cycle))
system.cpu.icache.demandHits::cpu.inst          91672                       # number of demand (read+write) hits (Count)
system.cpu.icache.demandHits::total             91672                       # number of demand (read+write) hits (Count)
system.cpu.icache.overallHits::cpu.inst         91672                       # number of overall hits (Count)
system.cpu.icache.overallHits::total            91672                       # number of overall hits (Count)
system.cpu.icache.demandMisses::cpu.inst          909                       # number of demand (read+write) misses (Count)
system.cpu.icache.demandMisses::total             909                       # number of demand (read+write) misses (Count)
system.cpu.icache.overallMisses::cpu.inst          909                       # number of overall misses (Count)
system.cpu.icache.overallMisses::total            909                       # number of overall misses (Count)
system.cpu.icache.demandMissLatency::cpu.inst     64767500                       # number of demand (read+write) miss ticks (Tick)
system.cpu.icache.demandMissLatency::total     64767500                       # number of demand (read+write) miss ticks (Tick)
system.cpu.icache.overallMissLatency::cpu.inst     64767500                       # number of overall miss ticks (Tick)
system.cpu.icache.overallMissLatency::total     64767500                       # number of overall miss ticks (Tick)
system.cpu.icache.demandAccesses::cpu.inst        92581                       # number of demand (read+write) accesses (Count)
system.cpu.icache.demandAccesses::total         92581                       # number of demand (read+write) accesses (Count)
system.cpu.icache.overallAccesses::cpu.inst        92581                       # number of overall (read+write) accesses (Count)
system.cpu.icache.overallAccesses::total        92581                       # number of overall (read+write) accesses (Count)
system.cpu.icache.demandMissRate::cpu.inst     0.009818                       # miss rate for demand accesses (Ratio)
system.cpu.icache.demandMissRate::total      0.009818                       # miss rate for demand accesses (Ratio)
system.cpu.icache.overallMissRate::cpu.inst     0.009818                       # miss rate for overall accesses (Ratio)
system.cpu.icache.overallMissRate::total     0.009818                       # miss rate for overall accesses (Ratio)
system.cpu.icache.demandAvgMissLatency::cpu.inst 71251.375138                       # average overall miss latency ((Cycle/Count))
system.cpu.icache.demandAvgMissLatency::total 71251.375138                       # average overall miss latency ((Cycle/Count))
system.cpu.icache.overallAvgMissLatency::cpu.inst 71251.375138                       # average overall miss latency ((Cycle/Count))
system.cpu.icache.overallAvgMissLatency::total 71251.375138                       # average overall miss latency ((Cycle/Count))
system.cpu.icache.blockedCycles::no_mshrs          154                       # number of cycles access was blocked (Cycle)
system.cpu.icache.blockedCycles::no_targets            0                       # number of cycles access was blocked (Cycle)
system.cpu.icache.blockedCauses::no_mshrs            4                       # number of times access was blocked (Count)
system.cpu.icache.blockedCauses::no_targets            0                       # number of times access was blocked (Count)
system.cpu.icache.avgBlocked::no_mshrs      38.500000                       # average number of cycles each access was blocked ((Cycle/Count))
system.cpu.icache.avgBlocked::no_targets          nan                       # average number of cycles each access was blocked ((Cycle/Count))
system.cpu.icache.writebacks::writebacks          119                       # number of writebacks (Count)
system.cpu.icache.writebacks::total               119                       # number of writebacks (Count)
system.cpu.icache.demandMshrHits::cpu.inst          335                       # number of demand (read+write) MSHR hits (Count)
system.cpu.icache.demandMshrHits::total           335                       # number of demand (read+write) MSHR hits (Count)
system.cpu.icache.overallMshrHits::cpu.inst          335                       # number of overall MSHR hits (Count)
system.cpu.icache.overallMshrHits::total          335                       # number of overall MSHR hits (Count)
system.cpu.icache.demandMshrMisses::cpu.inst          574                       # number of demand (read+write) MSHR misses (Count)
system.cpu.icache.demandMshrMisses::total          574                       # number of demand (read+write) MSHR misses (Count)
system.cpu.icache.overallMshrMisses::cpu.inst          574                       # number of overall MSHR misses (Count)
system.cpu.icache.overallMshrMisses::total          574                       # number of overall MSHR misses (Count)
system.cpu.icache.demandMshrMissLatency::cpu.inst     45494000                       # number of demand (read+write) MSHR miss ticks (Tick)
system.cpu.icache.demandMshrMissLatency::total     45494000                       # number of demand (read+write) MSHR miss ticks (Tick)
system.cpu.icache.overallMshrMissLatency::cpu.inst     45494000                       # number of overall MSHR miss ticks (Tick)
system.cpu.icache.overallMshrMissLatency::total     45494000                       # number of overall MSHR miss ticks (Tick)
system.cpu.icache.demandMshrMissRate::cpu.inst     0.006200                       # mshr miss ratio for demand accesses (Ratio)
system.cpu.icache.demandMshrMissRate::total     0.006200                       # mshr miss ratio for demand accesses (Ratio)
system.cpu.icache.overallMshrMissRate::cpu.inst     0.006200                       # mshr miss ratio for overall accesses (Ratio)
system.cpu.icache.overallMshrMissRate::total     0.006200                       # mshr miss ratio for overall accesses (Ratio)
system.cpu.icache.demandAvgMshrMissLatency::cpu.inst 79257.839721                       # average overall mshr miss latency ((Cycle/Count))
system.cpu.icache.demandAvgMshrMissLatency::total 79257.839721                       # average overall mshr miss latency ((Cycle/Count))
system.cpu.icache.overallAvgMshrMissLatency::cpu.inst 79257.839721                       # average overall mshr miss latency ((Cycle/Count))
system.cpu.icache.overallAvgMshrMissLatency::total 79257.839721                       # average overall mshr miss latency ((Cycle/Count))
system.cpu.icache.replacements                    119                       # number of replacements (Count)
system.cpu.icache.ReadReq.hits::cpu.inst        91672                       # number of ReadReq hits (Count)
system.cpu.icache.ReadReq.hits::total           91672                       # number of ReadReq hits (Count)
system.cpu.icache.ReadReq.misses::cpu.inst          909                       # number of ReadReq misses (Count)
system.cpu.icache.ReadReq.misses::total           909                       # number of ReadReq misses (Count)
system.cpu.icache.ReadReq.missLatency::cpu.inst     64767500                       # number of ReadReq miss ticks (Tick)
system.cpu.icache.ReadReq.missLatency::total     64767500                       # number of ReadReq miss ticks (Tick)
system.cpu.icache.ReadReq.accesses::cpu.inst        92581                       # number of ReadReq accesses(hits+misses) (Count)
system.cpu.icache.ReadReq.accesses::total        92581                       # number of ReadReq accesses(hits+misses) (Count)
system.cpu.icache.ReadReq.missRate::cpu.inst     0.009818                       # miss rate for ReadReq accesses (Ratio)
system.cpu.icache.ReadReq.missRate::total     0.009818                       # miss rate for ReadReq accesses (Ratio)
system.cpu.icache.ReadReq.avgMissLatency::cpu.inst 71251.375138                       # average ReadReq miss latency ((Tick/Count))
system.cpu.icache.ReadReq.avgMissLatency::total 71251.375138                       # average ReadReq miss latency ((Tick/Count))
system.cpu.icache.ReadReq.mshrHits::cpu.inst          335                       # number of ReadReq MSHR hits (Count)
system.cpu.icache.ReadReq.mshrHits::total          335                       # number of ReadReq MSHR hits (Count)
system.cpu.icache.ReadReq.mshrMisses::cpu.inst          574                       # number of ReadReq MSHR misses (Count)
system.cpu.icache.ReadReq.mshrMisses::total          574                       # number of ReadReq MSHR misses (Count)
system.cpu.icache.ReadReq.mshrMissLatency::cpu.inst     45494000                       # number of ReadReq MSHR miss ticks (Tick)
system.cpu.icache.ReadReq.mshrMissLatency::total     45494000                       # number of ReadReq MSHR miss ticks (Tick)
system.cpu.icache.ReadReq.mshrMissRate::cpu.inst     0.006200                       # mshr miss rate for ReadReq accesses (Ratio)
system.cpu.icache.ReadReq.mshrMissRate::total     0.006200                       # mshr miss rate for ReadReq accesses (Ratio)
system.cpu.icache.ReadReq.avgMshrMissLatency::cpu.inst 79257.839721                       # average ReadReq mshr miss latency ((Tick/Count))
system.cpu.icache.ReadReq.avgMshrMissLatency::total 79257.839721                       # average ReadReq mshr miss latency ((Tick/Count))
system.cpu.icache.power_state.pwrStateResidencyTicks::UNDEFINED  22688273000                       # Cumulative time (in ticks) in various power states (Tick)
system.cpu.icache.tags.tagsInUse           370.463469                       # Average ticks per tags in use ((Tick/Count))
system.cpu.icache.tags.totalRefs                92246                       # Total number of references to valid blocks. (Count)
system.cpu.icache.tags.sampledRefs                574                       # Sample count of references to valid blocks. (Count)
system.cpu.icache.tags.avgRefs             160.707317                       # Average number of references to valid blocks. ((Count/Count))
system.cpu.icache.tags.warmupTick               87500                       # The tick when the warmup percentage was hit. (Tick)
system.cpu.icache.tags.occupancies::cpu.inst   370.463469                       # Average occupied blocks per tick, per requestor ((Count/Tick))
system.cpu.icache.tags.avgOccs::cpu.inst     0.723561                       # Average percentage of cache occupancy ((Ratio/Tick))
system.cpu.icache.tags.avgOccs::total        0.723561                       # Average percentage of cache occupancy ((Ratio/Tick))
system.cpu.icache.tags.occupanciesTaskId::1024          447                       # Occupied blocks per task id (Count)
system.cpu.icache.tags.ageTaskId_1024::0           41                       # Occupied blocks per task id, per block age (Count)
system.cpu.icache.tags.ageTaskId_1024::1           83                       # Occupied blocks per task id, per block age (Count)
system.cpu.icache.tags.ageTaskId_1024::2           16                       # Occupied blocks per task id, per block age (Count)
system.cpu.icache.tags.ageTaskId_1024::4          307                       # Occupied blocks per task id, per block age (Count)
system.cpu.icache.tags.ratioOccsTaskId::1024     0.873047                       # Ratio of occupied blocks and all blocks, per task id (Ratio)
system.cpu.icache.tags.tagAccesses             370898                       # Number of tag accesses (Count)
system.cpu.icache.tags.dataAccesses            370898                       # Number of data accesses (Count)
system.cpu.icache.tags.power_state.pwrStateResidencyTicks::UNDEFINED  22688273000                       # Cumulative time (in ticks) in various power states (Tick)
system.cpu.interrupts.clk_domain.clock           8000                       # Clock period in ticks (Tick)
system.cpu.itb_walker_cache.blockedCycles::no_mshrs            0                       # number of cycles access was blocked (Cycle)
system.cpu.itb_walker_cache.blockedCycles::no_targets            0                       # number of cycles access was blocked (Cycle)
system.cpu.itb_walker_cache.blockedCauses::no_mshrs            0                       # number of times access was blocked (Count)
system.cpu.itb_walker_cache.blockedCauses::no_targets            0                       # number of times access was blocked (Count)
system.cpu.itb_walker_cache.avgBlocked::no_mshrs          nan                       # average number of cycles each access was blocked ((Cycle/Count))
system.cpu.itb_walker_cache.avgBlocked::no_targets          nan                       # average number of cycles each access was blocked ((Cycle/Count))
system.cpu.itb_walker_cache.replacements            0                       # number of replacements (Count)
system.cpu.itb_walker_cache.power_state.pwrStateResidencyTicks::UNDEFINED  22688273000                       # Cumulative time (in ticks) in various power states (Tick)
system.cpu.itb_walker_cache.tags.tagsInUse            0                       # Average ticks per tags in use ((Tick/Count))
system.cpu.itb_walker_cache.tags.totalRefs            0                       # Total number of references to valid blocks. (Count)
system.cpu.itb_walker_cache.tags.sampledRefs            0                       # Sample count of references to valid blocks. (Count)
system.cpu.itb_walker_cache.tags.avgRefs          nan                       # Average number of references to valid blocks. ((Count/Count))
system.cpu.itb_walker_cache.tags.warmupTick            0                       # The tick when the warmup percentage was hit. (Tick)
system.cpu.itb_walker_cache.tags.tagAccesses            0                       # Number of tag accesses (Count)
system.cpu.itb_walker_cache.tags.dataAccesses            0                       # Number of data accesses (Count)
system.cpu.itb_walker_cache.tags.power_state.pwrStateResidencyTicks::UNDEFINED  22688273000                       # Cumulative time (in ticks) in various power states (Tick)
system.cpu.lsq0.forwLoads                       19173                       # Number of loads that had data forwarded from stores (Count)
system.cpu.lsq0.squashedLoads                   25813                       # Number of loads squashed (Count)
system.cpu.lsq0.ignoredResponses                   28                       # Number of memory responses ignored because the instruction is squashed (Count)
system.cpu.lsq0.memOrderViolation                 123                       # Number of memory ordering violations (Count)
system.cpu.lsq0.squashedStores                  85838                       # Number of stores squashed (Count)
system.cpu.lsq0.rescheduledLoads                    0                       # Number of loads that were rescheduled (Count)
system.cpu.lsq0.blockedByCache                     20                       # Number of times an access to memory failed due to the cache being blocked (Count)
system.cpu.lsq0.loadToUse::samples             735229                       # Distribution of cycle latency between the first time a load is issued and its completion (Unspecified)
system.cpu.lsq0.loadToUse::mean              3.106284                       # Distribution of cycle latency between the first time a load is issued and its completion (Unspecified)
system.cpu.lsq0.loadToUse::stdev             3.217555                       # Distribution of cycle latency between the first time a load is issued and its completion (Unspecified)
system.cpu.lsq0.loadToUse::0-9                 733921     99.82%     99.82% # Distribution of cycle latency between the first time a load is issued and its completion (Unspecified)
system.cpu.lsq0.loadToUse::10-19                   54      0.01%     99.83% # Distribution of cycle latency between the first time a load is issued and its completion (Unspecified)
system.cpu.lsq0.loadToUse::20-29                 1043      0.14%     99.97% # Distribution of cycle latency between the first time a load is issued and its completion (Unspecified)
system.cpu.lsq0.loadToUse::30-39                   18      0.00%     99.97% # Distribution of cycle latency between the first time a load is issued and its completion (Unspecified)
system.cpu.lsq0.loadToUse::40-49                    3      0.00%     99.97% # Distribution of cycle latency between the first time a load is issued and its completion (Unspecified)
system.cpu.lsq0.loadToUse::50-59                    1      0.00%     99.97% # Distribution of cycle latency between the first time a load is issued and its completion (Unspecified)
system.cpu.lsq0.loadToUse::60-69                    1      0.00%     99.97% # Distribution of cycle latency between the first time a load is issued and its completion (Unspecified)
system.cpu.lsq0.loadToUse::70-79                    2      0.00%     99.97% # Distribution of cycle latency between the first time a load is issued and its completion (Unspecified)
system.cpu.lsq0.loadToUse::80-89                    1      0.00%     99.97% # Distribution of cycle latency between the first time a load is issued and its completion (Unspecified)
[...]
system.mem_ctrls.dram.perBankWrBursts::15        15362                       # Per bank write bursts (Count)
system.mem_ctrls.dram.totQLat              2738613750                       # Total ticks spent queuing (Tick)
system.mem_ctrls.dram.totBusLat            1256505000                       # Total ticks spent in databus transfers (Tick)
system.mem_ctrls.dram.totMemAccLat         7450507500                       # Total ticks spent from burst creation until serviced by the DRAM (Tick)
system.mem_ctrls.dram.avgQLat                10897.74                       # Average queueing delay per DRAM burst ((Tick/Count))
system.mem_ctrls.dram.avgBusLat               5000.00                       # Average bus latency per DRAM burst ((Tick/Count))
system.mem_ctrls.dram.avgMemAccLat           29647.74                       # Average memory access latency per DRAM burst ((Tick/Count))
system.mem_ctrls.dram.readRowHits              230944                       # Number of row buffer hits during reads (Count)
system.mem_ctrls.dram.writeRowHits             229015                       # Number of row buffer hits during writes (Count)
system.mem_ctrls.dram.readRowHitRate            91.90                       # Row buffer hit rate for reads (Ratio)
system.mem_ctrls.dram.writeRowHitRate           92.80                       # Row buffer hit rate for writes (Ratio)
system.mem_ctrls.dram.bytesPerActivate::samples        38100                       # Bytes accessed per row activation (Byte)
system.mem_ctrls.dram.bytesPerActivate::mean   836.567349                       # Bytes accessed per row activation (Byte)
system.mem_ctrls.dram.bytesPerActivate::gmean   728.516454                       # Bytes accessed per row activation (Byte)
system.mem_ctrls.dram.bytesPerActivate::stdev   303.736819                       # Bytes accessed per row activation (Byte)
system.mem_ctrls.dram.bytesPerActivate::0-127         1100      2.89%      2.89% # Bytes accessed per row activation (Byte)
system.mem_ctrls.dram.bytesPerActivate::128-255         1686      4.43%      7.31% # Bytes accessed per row activation (Byte)
system.mem_ctrls.dram.bytesPerActivate::256-383         2461      6.46%     13.77% # Bytes accessed per row activation (Byte)
system.mem_ctrls.dram.bytesPerActivate::384-511         1645      4.32%     18.09% # Bytes accessed per row activation (Byte)
system.mem_ctrls.dram.bytesPerActivate::512-639          994      2.61%     20.70% # Bytes accessed per row activation (Byte)
system.mem_ctrls.dram.bytesPerActivate::640-767         2130      5.59%     26.29% # Bytes accessed per row activation (Byte)
system.mem_ctrls.dram.bytesPerActivate::768-895         2050      5.38%     31.67% # Bytes accessed per row activation (Byte)
system.mem_ctrls.dram.bytesPerActivate::896-1023         1086      2.85%     34.52% # Bytes accessed per row activation (Byte)
system.mem_ctrls.dram.bytesPerActivate::1024-1151        24948     65.48%    100.00% # Bytes accessed per row activation (Byte)
system.mem_ctrls.dram.bytesPerActivate::total        38100                       # Bytes accessed per row activation (Byte)
system.mem_ctrls.dram.bytesRead              16083264                       # Total number of bytes read from DRAM (Byte)
system.mem_ctrls.dram.bytesWritten           15793408                       # Total number of bytes written to DRAM (Byte)
system.mem_ctrls.dram.avgRdBW              708.880046                       # Average DRAM read bandwidth in MiBytes/s ((Byte/Second))
system.mem_ctrls.dram.avgWrBW              696.104459                       # Average DRAM write bandwidth in MiBytes/s ((Byte/Second))
system.mem_ctrls.dram.peakBW                 12800.00                       # Theoretical peak bandwidth in MiByte/s ((Byte/Second))
system.mem_ctrls.dram.busUtil                   10.98                       # Data bus utilization in percentage (Ratio)
system.mem_ctrls.dram.busUtilRead                5.54                       # Data bus utilization in percentage for reads (Ratio)
system.mem_ctrls.dram.busUtilWrite               5.44                       # Data bus utilization in percentage for writes (Ratio)
system.mem_ctrls.dram.pageHitRate               92.35                       # Row buffer hit rate, read and write combined (Ratio)
system.mem_ctrls.dram.power_state.pwrStateResidencyTicks::UNDEFINED  22688273000                       # Cumulative time (in ticks) in various power states (Tick)
system.mem_ctrls.dram.rank0.actEnergy       136531080                       # Energy for activate commands per rank (pJ) (Joule)
system.mem_ctrls.dram.rank0.preEnergy        72541425                       # Energy for precharge commands per rank (pJ) (Joule)
system.mem_ctrls.dram.rank0.readEnergy      900789540                       # Energy for read commands per rank (pJ) (Joule)
system.mem_ctrls.dram.rank0.writeEnergy     647306100                       # Energy for write commands per rank (pJ) (Joule)
system.mem_ctrls.dram.rank0.refreshEnergy 1790446320.000000                       # Energy for refresh commands per rank (pJ) (Joule)
system.mem_ctrls.dram.rank0.actBackEnergy   5588294820                       # Energy for active background per rank (pJ) (Joule)
system.mem_ctrls.dram.rank0.preBackEnergy   4006364640                       # Energy for precharge background per rank (pJ) (Joule)
system.mem_ctrls.dram.rank0.actPowerDownEnergy            0                       # Energy for active power-down per rank (pJ) (Joule)
system.mem_ctrls.dram.rank0.prePowerDownEnergy            0                       # Energy for precharge power-down per rank (pJ) (Joule)
system.mem_ctrls.dram.rank0.selfRefreshEnergy            0                       # Energy for self refresh per rank (pJ) (Joule)
system.mem_ctrls.dram.rank0.totalEnergy   13142273925                       # Total energy per rank (pJ) (Joule)
system.mem_ctrls.dram.rank0.averagePower   579.254046                       # Core power per rank (mW) (Watt)
system.mem_ctrls.dram.rank0.totalIdleTime            0                       # Total Idle time Per DRAM Rank (Tick)
system.mem_ctrls.dram.rank0.pwrStateTime::IDLE  10247964500                       # Time in different power states (Tick)
system.mem_ctrls.dram.rank0.pwrStateTime::REF    757380000                       # Time in different power states (Tick)
system.mem_ctrls.dram.rank0.pwrStateTime::SREF            0                       # Time in different power states (Tick)
system.mem_ctrls.dram.rank0.pwrStateTime::PRE_PDN            0                       # Time in different power states (Tick)
system.mem_ctrls.dram.rank0.pwrStateTime::ACT  11682928500                       # Time in different power states (Tick)
system.mem_ctrls.dram.rank0.pwrStateTime::ACT_PDN            0                       # Time in different power states (Tick)
system.mem_ctrls.dram.rank1.actEnergy       135602880                       # Energy for activate commands per rank (pJ) (Joule)
system.mem_ctrls.dram.rank1.preEnergy        72048075                       # Energy for precharge commands per rank (pJ) (Joule)
system.mem_ctrls.dram.rank1.readEnergy      893499600                       # Energy for read commands per rank (pJ) (Joule)
system.mem_ctrls.dram.rank1.writeEnergy     640843740                       # Energy for write commands per rank (pJ) (Joule)
system.mem_ctrls.dram.rank1.refreshEnergy 1790446320.000000                       # Energy for refresh commands per rank (pJ) (Joule)
system.mem_ctrls.dram.rank1.actBackEnergy   5561049390                       # Energy for active background per rank (pJ) (Joule)
system.mem_ctrls.dram.rank1.preBackEnergy   4029308160                       # Energy for precharge background per rank (pJ) (Joule)
system.mem_ctrls.dram.rank1.actPowerDownEnergy            0                       # Energy for active power-down per rank (pJ) (Joule)
system.mem_ctrls.dram.rank1.prePowerDownEnergy            0                       # Energy for precharge power-down per rank (pJ) (Joule)
system.mem_ctrls.dram.rank1.selfRefreshEnergy            0                       # Energy for self refresh per rank (pJ) (Joule)
system.mem_ctrls.dram.rank1.totalEnergy   13122798165                       # Total energy per rank (pJ) (Joule)
system.mem_ctrls.dram.rank1.averagePower   578.395639                       # Core power per rank (mW) (Watt)
system.mem_ctrls.dram.rank1.totalIdleTime            0                       # Total Idle time Per DRAM Rank (Tick)
system.mem_ctrls.dram.rank1.pwrStateTime::IDLE  10308716750                       # Time in different power states (Tick)
system.mem_ctrls.dram.rank1.pwrStateTime::REF    757380000                       # Time in different power states (Tick)
system.mem_ctrls.dram.rank1.pwrStateTime::SREF            0                       # Time in different power states (Tick)
system.mem_ctrls.dram.rank1.pwrStateTime::PRE_PDN            0                       # Time in different power states (Tick)
system.mem_ctrls.dram.rank1.pwrStateTime::ACT  11622176250                       # Time in different power states (Tick)
system.mem_ctrls.dram.rank1.pwrStateTime::ACT_PDN            0                       # Time in different power states (Tick)
system.mem_ctrls.power_state.pwrStateResidencyTicks::UNDEFINED  22688273000                       # Cumulative time (in ticks) in various power states (Tick)
system.membus.transDist::ReadResp                 747                       # Transaction distribution (Count)
system.membus.transDist::WritebackDirty        246796                       # Transaction distribution (Count)
system.membus.transDist::CleanEvict               102                       # Transaction distribution (Count)
system.membus.transDist::UpgradeReq                 1                       # Transaction distribution (Count)
system.membus.transDist::ReadExReq             250555                       # Transaction distribution (Count)
system.membus.transDist::ReadExResp            250555                       # Transaction distribution (Count)
system.membus.transDist::ReadSharedReq            747                       # Transaction distribution (Count)
system.membus.pktCount_system.l2.mem_side_port::system.mem_ctrls.port       749503                       # Packet count per connected requestor and responder (Count)
system.membus.pktCount_system.l2.mem_side_port::total       749503                       # Packet count per connected requestor and responder (Count)
system.membus.pktCount::total                  749503                       # Packet count per connected requestor and responder (Count)
system.membus.pktSize_system.l2.mem_side_port::system.mem_ctrls.port     31878272                       # Cumulative packet size per connected requestor and responder (Byte)
system.membus.pktSize_system.l2.mem_side_port::total     31878272                       # Cumulative packet size per connected requestor and responder (Byte)
system.membus.pktSize::total                 31878272                       # Cumulative packet size per connected requestor and responder (Byte)
system.membus.snoops                                0                       # Total snoops (Count)
system.membus.snoopTraffic                          0                       # Total snoop traffic (Byte)
system.membus.snoopFanout::samples             251303                       # Request fanout histogram (Count)
system.membus.snoopFanout::mean                     0                       # Request fanout histogram (Count)
system.membus.snoopFanout::stdev                    0                       # Request fanout histogram (Count)
system.membus.snoopFanout::underflows               0      0.00%      0.00% # Request fanout histogram (Count)
system.membus.snoopFanout::0                   251303    100.00%    100.00% # Request fanout histogram (Count)
system.membus.snoopFanout::1                        0      0.00%    100.00% # Request fanout histogram (Count)
system.membus.snoopFanout::overflows                0      0.00%    100.00% # Request fanout histogram (Count)
system.membus.snoopFanout::min_value                0                       # Request fanout histogram (Count)
system.membus.snoopFanout::max_value                0                       # Request fanout histogram (Count)
system.membus.snoopFanout::total               251303                       # Request fanout histogram (Count)
system.membus.power_state.pwrStateResidencyTicks::UNDEFINED  22688273000                       # Cumulative time (in ticks) in various power states (Tick)
system.membus.reqLayer2.occupancy          1487600000                       # Layer occupancy (ticks) (Tick)
system.membus.reqLayer2.utilization               0.1                       # Layer utilization (Ratio)
system.membus.respLayer1.occupancy         1321762250                       # Layer occupancy (ticks) (Tick)
system.membus.respLayer1.utilization              0.1                       # Layer utilization (Ratio)
system.membus.snoop_filter.totRequests         498201                       # Total number of requests made to the snoop filter. (Count)
system.membus.snoop_filter.hitSingleRequests       246902                       # Number of requests hitting in the snoop filter with a single holder of the requested data. (Count)
system.membus.snoop_filter.hitMultiRequests            0                       # Number of requests hitting in the snoop filter with multiple (>1) holders of the requested data. (Count)
system.membus.snoop_filter.totSnoops                0                       # Total number of snoops made to the snoop filter. (Count)
system.membus.snoop_filter.hitSingleSnoops            0                       # Number of snoops hitting in the snoop filter with a single holder of the requested data. (Count)
system.membus.snoop_filter.hitMultiSnoops            0                       # Number of snoops hitting in the snoop filter with multiple (>1) holders of the requested data. (Count)
system.tol2bus.transDist::ReadResp               1784                       # Transaction distribution (Count)
system.tol2bus.transDist::WritebackDirty       502794                       # Transaction distribution (Count)
system.tol2bus.transDist::WritebackClean          119                       # Transaction distribution (Count)
system.tol2bus.transDist::CleanEvict              578                       # Transaction distribution (Count)
system.tol2bus.transDist::UpgradeReq                8                       # Transaction distribution (Count)
system.tol2bus.transDist::UpgradeResp               8                       # Transaction distribution (Count)
system.tol2bus.transDist::ReadExReq            255385                       # Transaction distribution (Count)
system.tol2bus.transDist::ReadExResp           255385                       # Transaction distribution (Count)
system.tol2bus.transDist::ReadCleanReq            574                       # Transaction distribution (Count)
system.tol2bus.transDist::ReadSharedReq          1210                       # Transaction distribution (Count)
system.tol2bus.pktCount_system.cpu.icache.mem_side_port::system.l2.cpu_side_port         1258                       # Packet count per connected requestor and responder (Count)
system.tol2bus.pktCount_system.cpu.dcache.mem_side_port::system.l2.cpu_side_port       769289                       # Packet count per connected requestor and responder (Count)
system.tol2bus.pktCount::total                 770547                       # Packet count per connected requestor and responder (Count)
system.tol2bus.pktSize_system.cpu.icache.mem_side_port::system.l2.cpu_side_port        43776                       # Cumulative packet size per connected requestor and responder (Byte)
system.tol2bus.pktSize_system.cpu.dcache.mem_side_port::system.l2.cpu_side_port     32805952                       # Cumulative packet size per connected requestor and responder (Byte)
system.tol2bus.pktSize::total                32849728                       # Cumulative packet size per connected requestor and responder (Byte)
system.tol2bus.snoops                          247298                       # Total snoops (Count)
system.tol2bus.snoopTraffic                  15795520                       # Total snoop traffic (Byte)
system.tol2bus.snoopFanout::samples            504466                       # Request fanout histogram (Count)
system.tol2bus.snoopFanout::mean             0.000823                       # Request fanout histogram (Count)
system.tol2bus.snoopFanout::stdev            0.028670                       # Request fanout histogram (Count)
system.tol2bus.snoopFanout::underflows              0      0.00%      0.00% # Request fanout histogram (Count)
system.tol2bus.snoopFanout::0                  504051     99.92%     99.92% # Request fanout histogram (Count)
system.tol2bus.snoopFanout::1                     415      0.08%    100.00% # Request fanout histogram (Count)
system.tol2bus.snoopFanout::2                       0      0.00%    100.00% # Request fanout histogram (Count)
system.tol2bus.snoopFanout::3                       0      0.00%    100.00% # Request fanout histogram (Count)
system.tol2bus.snoopFanout::4                       0      0.00%    100.00% # Request fanout histogram (Count)
system.tol2bus.snoopFanout::overflows               0      0.00%    100.00% # Request fanout histogram (Count)
system.tol2bus.snoopFanout::min_value               0                       # Request fanout histogram (Count)
system.tol2bus.snoopFanout::max_value               1                       # Request fanout histogram (Count)
system.tol2bus.snoopFanout::total              504466                       # Request fanout histogram (Count)
system.tol2bus.power_state.pwrStateResidencyTicks::UNDEFINED  22688273000                       # Cumulative time (in ticks) in various power states (Tick)
system.tol2bus.reqLayer0.occupancy          512806500                       # Layer occupancy (ticks) (Tick)
system.tol2bus.reqLayer0.utilization              0.0                       # Layer utilization (Ratio)
system.tol2bus.respLayer0.occupancy            861000                       # Layer occupancy (ticks) (Tick)
system.tol2bus.respLayer0.utilization             0.0                       # Layer utilization (Ratio)
system.tol2bus.respLayer1.occupancy         384896500                       # Layer occupancy (ticks) (Tick)
system.tol2bus.respLayer1.utilization             0.0                       # Layer utilization (Ratio)
system.tol2bus.snoop_filter.totRequests        513379                       # Total number of requests made to the snoop filter. (Count)
system.tol2bus.snoop_filter.hitSingleRequests       256211                       # Number of requests hitting in the snoop filter with a single holder of the requested data. (Count)
system.tol2bus.snoop_filter.hitMultiRequests           14                       # Number of requests hitting in the snoop filter with multiple (>1) holders of the requested data. (Count)
system.tol2bus.snoop_filter.totSnoops             392                       # Total number of snoops made to the snoop filter. (Count)
system.tol2bus.snoop_filter.hitSingleSnoops          392                       # Number of snoops hitting in the snoop filter with a single holder of the requested data. (Count)
system.tol2bus.snoop_filter.hitMultiSnoops            0                       # Number of snoops hitting in the snoop filter with multiple (>1) holders of the requested data. (Count)
system.voltage_domain.voltage                       1                       # Voltage in Volts (Volt)
system.workload.inst.arm                            0                       # number of arm instructions executed (Count)
system.workload.inst.quiesce                        0                       # number of quiesce instructions executed (Count)

---------- End Simulation Statistics   ----------
