
---------- Begin Simulation Statistics ----------
simSeconds                                   0.003782                       # Number of seconds simulated (Second)
simTicks                                   3781750500                       # Number of ticks simulated (Tick)
finalTick                                  3781750500                       # Number of ticks from beginning of simulation (restored from checkpoints and never reset) (Tick)
simFreq                                  1000000000000                       # The number of ticks per simulated second ((Tick/Second))
hostSeconds                                    108.19                       # Real time elapsed on the host (Second)
hostTickRate                                 34953705                       # The number of ticks simulated per host second (ticks/s) ((Tick/Second))
hostMemory                                     645420                       # Number of bytes of host memory used (Byte)
simInsts                                     10000002                       # Number of instructions simulated (Count)
simOps                                       18039886                       # Number of ops (including micro ops) simulated (Count)
hostInstRate                                    92427                       # Simulator instruction rate (inst/s) ((Count/Second))
hostOpRate                                     166737                       # Simulator op (including micro ops) rate (op/s) ((Count/Second))
system.clk_domain.clock                          1000                       # Clock period in ticks (Tick)
system.cpu.numCycles                          7563502                       # Number of cpu cycles simulated (Cycle)
system.cpu.numWorkItemsStarted                      0                       # Number of work items this cpu started (Count)
system.cpu.numWorkItemsCompleted                    0                       # Number of work items this cpu completed (Count)
system.cpu.instsAdded                        20795741                       # Number of instructions added to the IQ (excludes non-spec) (Count)
system.cpu.nonSpecInstsAdded                      107                       # Number of non-speculative instructions added to the IQ (Count)
system.cpu.instsIssued                       19960531                       # Number of instructions issued (Count)
system.cpu.squashedInstsIssued                    200                       # Number of squashed instructions issued (Count)
system.cpu.squashedInstsExamined              2755940                       # Number of squashed instructions iterated over during squash; mainly for profiling (Count)
system.cpu.squashedOperandsExamined           3256416                       # Number of squashed operands that are examined and possibly removed from graph (Count)
system.cpu.squashedNonSpecRemoved                 100                       # Number of squashed non-spec instructions that were removed (Count)
system.cpu.numIssuedDist::samples             7529037                       # Number of insts issued each cycle (Count)
system.cpu.numIssuedDist::mean               2.651140                       # Number of insts issued each cycle (Count)
system.cpu.numIssuedDist::stdev              2.440357                       # Number of insts issued each cycle (Count)
system.cpu.numIssuedDist::underflows                0      0.00%      0.00% # Number of insts issued each cycle (Count)
system.cpu.numIssuedDist::0                   2373489     31.52%     31.52% # Number of insts issued each cycle (Count)
system.cpu.numIssuedDist::1                    798457     10.61%     42.13% # Number of insts issued each cycle (Count)
system.cpu.numIssuedDist::2                    645517      8.57%     50.70% # Number of insts issued each cycle (Count)
system.cpu.numIssuedDist::3                    888057     11.80%     62.50% # Number of insts issued each cycle (Count)
system.cpu.numIssuedDist::4                    929158     12.34%     74.84% # Number of insts issued each cycle (Count)
system.cpu.numIssuedDist::5                    672425      8.93%     83.77% # Number of insts issued each cycle (Count)
system.cpu.numIssuedDist::6                    606286      8.05%     91.82% # Number of insts issued each cycle (Count)
system.cpu.numIssuedDist::7                    434788      5.77%     97.60% # Number of insts issued each cycle (Count)
system.cpu.numIssuedDist::8                    180860      2.40%    100.00% # Number of insts issued each cycle (Count)
system.cpu.numIssuedDist::overflows                 0      0.00%    100.00% # Number of insts issued each cycle (Count)
system.cpu.numIssuedDist::min_value                 0                       # Number of insts issued each cycle (Count)
system.cpu.numIssuedDist::max_value                 8                       # Number of insts issued each cycle (Count)
system.cpu.numIssuedDist::total               7529037                       # Number of insts issued each cycle (Count)
system.cpu.statFuBusy::No_OpClass                   0      0.00%      0.00% # attempts to use FU when none available (Count)
system.cpu.statFuBusy::IntAlu                  240406     72.13%     72.13% # attempts to use FU when none available (Count)
system.cpu.statFuBusy::IntMult                      0      0.00%     72.13% # attempts to use FU when none available (Count)
system.cpu.statFuBusy::IntDiv                       0      0.00%     72.13% # attempts to use FU when none available (Count)
system.cpu.statFuBusy::FloatAdd                     0      0.00%     72.13% # attempts to use FU when none available (Count)
system.cpu.statFuBusy::FloatCmp                     0      0.00%     72.13% # attempts to use FU when none available (Count)
system.cpu.statFuBusy::FloatCvt                     0      0.00%     72.13% # attempts to use FU when none available (Count)
system.cpu.statFuBusy::FloatMult                    0      0.00%     72.13% # attempts to use FU when none available (Count)
system.cpu.statFuBusy::FloatMultAcc                 0      0.00%     72.13% # attempts to use FU when none available (Count)
system.cpu.statFuBusy::FloatDiv                     0      0.00%     72.13% # attempts to use FU when none available (Count)
system.cpu.statFuBusy::FloatMisc                    0      0.00%     72.13% # attempts to use FU when none available (Count)
system.cpu.statFuBusy::FloatSqrt                    0      0.00%     72.13% # attempts to use FU when none available (Count)
system.cpu.statFuBusy::SimdAdd                      0      0.00%     72.13% # attempts to use FU when none available (Count)
system.cpu.statFuBusy::SimdAddAcc                   0      0.00%     72.13% # attempts to use FU when none available (Count)
system.cpu.statFuBusy::SimdAlu                      0      0.00%     72.13% # attempts to use FU when none available (Count)
system.cpu.statFuBusy::SimdCmp                      0      0.00%     72.13% # attempts to use FU when none available (Count)
system.cpu.statFuBusy::SimdCvt                      0      0.00%     72.13% # attempts to use FU when none available (Count)
system.cpu.statFuBusy::SimdMisc                     0      0.00%     72.13% # attempts to use FU when none available (Count)
system.cpu.statFuBusy::SimdMult                     0      0.00%     72.13% # attempts to use FU when none available (Count)
system.cpu.statFuBusy::SimdMultAcc                  0      0.00%     72.13% # attempts to use FU when none available (Count)
system.cpu.statFuBusy::SimdShift                    0      0.00%     72.13% # attempts to use FU when none available (Count)
system.cpu.statFuBusy::SimdShiftAcc                 0      0.00%     72.13% # attempts to use FU when none available (Count)
system.cpu.statFuBusy::SimdDiv                      0      0.00%     72.13% # attempts to use FU when none available (Count)
system.cpu.statFuBusy::SimdSqrt                     0      0.00%     72.13% # attempts to use FU when none available (Count)
system.cpu.statFuBusy::SimdFloatAdd                 0      0.00%     72.13% # attempts to use FU when none available (Count)
system.cpu.statFuBusy::SimdFloatAlu                 0      0.00%     72.13% # attempts to use FU when none available (Count)
system.cpu.statFuBusy::SimdFloatCmp                 0      0.00%     72.13% # attempts to use FU when none available (Count)
system.cpu.statFuBusy::SimdFloatCvt                 0      0.00%     72.13% # attempts to use FU when none available (Count)
system.cpu.statFuBusy::SimdFloatDiv                 0      0.00%     72.13% # attempts to use FU when none available (Count)
system.cpu.statFuBusy::SimdFloatMisc                0      0.00%     72.13% # attempts to use FU when none available (Count)
system.cpu.statFuBusy::SimdFloatMult                0      0.00%     72.13% # attempts to use FU when none available (Count)
system.cpu.statFuBusy::SimdFloatMultAcc             0      0.00%     72.13% # attempts to use FU when none available (Count)
system.cpu.statFuBusy::SimdFloatSqrt                0      0.00%     72.13% # attempts to use FU when none available (Count)
system.cpu.statFuBusy::SimdReduceAdd                0      0.00%     72.13% # attempts to use FU when none available (Count)
system.cpu.statFuBusy::SimdReduceAlu                0      0.00%     72.13% # attempts to use FU when none available (Count)
system.cpu.statFuBusy::SimdReduceCmp                0      0.00%     72.13% # attempts to use FU when none available (Count)
system.cpu.statFuBusy::SimdFloatReduceAdd            0      0.00%     72.13% # attempts to use FU when none available (Count)
system.cpu.statFuBusy::SimdFloatReduceCmp            0      0.00%     72.13% # attempts to use FU when none available (Count)
system.cpu.statFuBusy::SimdAes                      0      0.00%     72.13% # attempts to use FU when none available (Count)
system.cpu.statFuBusy::SimdAesMix                   0      0.00%     72.13% # attempts to use FU when none available (Count)
system.cpu.statFuBusy::SimdSha1Hash                 0      0.00%     72.13% # attempts to use FU when none available (Count)
system.cpu.statFuBusy::SimdSha1Hash2                0      0.00%     72.13% # attempts to use FU when none available (Count)
system.cpu.statFuBusy::SimdSha256Hash               0      0.00%     72.13% # attempts to use FU when none available (Count)
system.cpu.statFuBusy::SimdSha256Hash2              0      0.00%     72.13% # attempts to use FU when none available (Count)
system.cpu.statFuBusy::SimdShaSigma2                0      0.00%     72.13% # attempts to use FU when none available (Count)
system.cpu.statFuBusy::SimdShaSigma3                0      0.00%     72.13% # attempts to use FU when none available (Count)
system.cpu.statFuBusy::SimdPredAlu                  0      0.00%     72.13% # attempts to use FU when none available (Count)
system.cpu.statFuBusy::MemRead                  50263     15.08%     87.21% # attempts to use FU when none available (Count)
system.cpu.statFuBusy::MemWrite                 42616     12.79%    100.00% # attempts to use FU when none available (Count)
system.cpu.statFuBusy::FloatMemRead                 0      0.00%    100.00% # attempts to use FU when none available (Count)
system.cpu.statFuBusy::FloatMemWrite                0      0.00%    100.00% # attempts to use FU when none available (Count)
system.cpu.statFuBusy::IprAccess                    0      0.00%    100.00% # attempts to use FU when none available (Count)
system.cpu.statFuBusy::InstPrefetch                 0      0.00%    100.00% # attempts to use FU when none available (Count)
system.cpu.statIssuedInstType_0::No_OpClass       137509      0.69%      0.69% # Number of instructions issued per FU type, per thread (Count)
system.cpu.statIssuedInstType_0::IntAlu      13943902     69.86%     70.55% # Number of instructions issued per FU type, per thread (Count)
system.cpu.statIssuedInstType_0::IntMult           23      0.00%     70.55% # Number of instructions issued per FU type, per thread (Count)
system.cpu.statIssuedInstType_0::IntDiv            84      0.00%     70.55% # Number of instructions issued per FU type, per thread (Count)
system.cpu.statIssuedInstType_0::FloatAdd            0      0.00%     70.55% # Number of instructions issued per FU type, per thread (Count)
system.cpu.statIssuedInstType_0::FloatCmp            0      0.00%     70.55% # Number of instructions issued per FU type, per thread (Count)
system.cpu.statIssuedInstType_0::FloatCvt            0      0.00%     70.55% # Number of instructions issued per FU type, per thread (Count)
system.cpu.statIssuedInstType_0::FloatMult            0      0.00%     70.55% # Number of instructions issued per FU type, per thread (Count)
system.cpu.statIssuedInstType_0::FloatMultAcc            0      0.00%     70.55% # Number of instructions issued per FU type, per thread (Count)
system.cpu.statIssuedInstType_0::FloatDiv            0      0.00%     70.55% # Number of instructions issued per FU type, per thread (Count)
system.cpu.statIssuedInstType_0::FloatMisc            0      0.00%     70.55% # Number of instructions issued per FU type, per thread (Count)
system.cpu.statIssuedInstType_0::FloatSqrt            0      0.00%     70.55% # Number of instructions issued per FU type, per thread (Count)
system.cpu.statIssuedInstType_0::SimdAdd            0      0.00%     70.55% # Number of instructions issued per FU type, per thread (Count)
system.cpu.statIssuedInstType_0::SimdAddAcc            0      0.00%     70.55% # Number of instructions issued per FU type, per thread (Count)
system.cpu.statIssuedInstType_0::SimdAlu            0      0.00%     70.55% # Number of instructions issued per FU type, per thread (Count)
system.cpu.statIssuedInstType_0::SimdCmp            0      0.00%     70.55% # Number of instructions issued per FU type, per thread (Count)
system.cpu.statIssuedInstType_0::SimdCvt            0      0.00%     70.55% # Number of instructions issued per FU type, per thread (Count)
system.cpu.statIssuedInstType_0::SimdMisc            0      0.00%     70.55% # Number of instructions issued per FU type, per thread (Count)
system.cpu.statIssuedInstType_0::SimdMult            0      0.00%     70.55% # Number of instructions issued per FU type, per thread (Count)
system.cpu.statIssuedInstType_0::SimdMultAcc            0      0.00%     70.55% # Number of instructions issued per FU type, per thread (Count)
system.cpu.statIssuedInstType_0::SimdShift            0      0.00%     70.55% # Number of instructions issued per FU type, per thread (Count)
system.cpu.statIssuedInstType_0::SimdShiftAcc            0      0.00%     70.55% # Number of instructions issued per FU type, per thread (Count)
system.cpu.statIssuedInstType_0::SimdDiv            0      0.00%     70.55% # Number of instructions issued per FU type, per thread (Count)
system.cpu.statIssuedInstType_0::SimdSqrt            0      0.00%     70.55% # Number of instructions issued per FU type, per thread (Count)
system.cpu.statIssuedInstType_0::SimdFloatAdd            0      0.00%     70.55% # Number of instructions issued per FU type, per thread (Count)
system.cpu.statIssuedInstType_0::SimdFloatAlu            0      0.00%     70.55% # Number of instructions issued per FU type, per thread (Count)
system.cpu.statIssuedInstType_0::SimdFloatCmp            0      0.00%     70.55% # Number of instructions issued per FU type, per thread (Count)
system.cpu.statIssuedInstType_0::SimdFloatCvt            0      0.00%     70.55% # Number of instructions issued per FU type, per thread (Count)
system.cpu.statIssuedInstType_0::SimdFloatDiv            0      0.00%     70.55% # Number of instructions issued per FU type, per thread (Count)
system.cpu.statIssuedInstType_0::SimdFloatMisc            0      0.00%     70.55% # Number of instructions issued per FU type, per thread (Count)
system.cpu.statIssuedInstType_0::SimdFloatMult            0      0.00%     70.55% # Number of instructions issued per FU type, per thread (Count)
system.cpu.statIssuedInstType_0::SimdFloatMultAcc            0      0.00%     70.55% # Number of instructions issued per FU type, per thread (Count)
system.cpu.statIssuedInstType_0::SimdFloatSqrt            0      0.00%     70.55% # Number of instructions issued per FU type, per thread (Count)
system.cpu.statIssuedInstType_0::SimdReduceAdd            0      0.00%     70.55% # Number of instructions issued per FU type, per thread (Count)
system.cpu.statIssuedInstType_0::SimdReduceAlu            0      0.00%     70.55% # Number of instructions issued per FU type, per thread (Count)
system.cpu.statIssuedInstType_0::SimdReduceCmp            0      0.00%     70.55% # Number of instructions issued per FU type, per thread (Count)
system.cpu.statIssuedInstType_0::SimdFloatReduceAdd            0      0.00%     70.55% # Number of instructions issued per FU type, per thread (Count)
system.cpu.statIssuedInstType_0::SimdFloatReduceCmp            0      0.00%     70.55% # Number of instructions issued per FU type, per thread (Count)
system.cpu.statIssuedInstType_0::SimdAes            0      0.00%     70.55% # Number of instructions issued per FU type, per thread (Count)
system.cpu.statIssuedInstType_0::SimdAesMix            0      0.00%     70.55% # Number of instructions issued per FU type, per thread (Count)
system.cpu.statIssuedInstType_0::SimdSha1Hash            0      0.00%     70.55% # Number of instructions issued per FU type, per thread (Count)
system.cpu.statIssuedInstType_0::SimdSha1Hash2            0      0.00%     70.55% # Number of instructions issued per FU type, per thread (Count)
system.cpu.statIssuedInstType_0::SimdSha256Hash            0      0.00%     70.55% # Number of instructions issued per FU type, per thread (Count)
system.cpu.statIssuedInstType_0::SimdSha256Hash2            0      0.00%     70.55% # Number of instructions issued per FU type, per thread (Count)
system.cpu.statIssuedInstType_0::SimdShaSigma2            0      0.00%     70.55% # Number of instructions issued per FU type, per thread (Count)
system.cpu.statIssuedInstType_0::SimdShaSigma3            0      0.00%     70.55% # Number of instructions issued per FU type, per thread (Count)
system.cpu.statIssuedInstType_0::SimdPredAlu            0      0.00%     70.55% # Number of instructions issued per FU type, per thread (Count)
system.cpu.statIssuedInstType_0::MemRead      3969904     19.89%     90.44% # Number of instructions issued per FU type, per thread (Count)
system.cpu.statIssuedInstType_0::MemWrite      1909109      9.56%    100.00% # Number of instructions issued per FU type, per thread (Count)
system.cpu.statIssuedInstType_0::FloatMemRead            0      0.00%    100.00% # Number of instructions issued per FU type, per thread (Count)
system.cpu.statIssuedInstType_0::FloatMemWrite            0      0.00%    100.00% # Number of instructions issued per FU type, per thread (Count)
system.cpu.statIssuedInstType_0::IprAccess            0      0.00%    100.00% # Number of instructions issued per FU type, per thread (Count)
system.cpu.statIssuedInstType_0::InstPrefetch            0      0.00%    100.00% # Number of instructions issued per FU type, per thread (Count)
system.cpu.statIssuedInstType_0::total       19960531                       # Number of instructions issued per FU type, per thread (Count)
system.cpu.issueRate                         2.639059                       # Inst issue rate ((Count/Cycle))
system.cpu.fuBusy                              333285                       # FU busy when requested (Count)
system.cpu.fuBusyRate                        0.016697                       # FU busy rate (busy events/executed inst) ((Count/Count))
system.cpu.intInstQueueReads                 47783580                       # Number of integer instruction queue reads (Count)
system.cpu.intInstQueueWrites                23552094                       # Number of integer instruction queue writes (Count)
system.cpu.intInstQueueWakeupAccesses        19676198                       # Number of integer instruction queue wakeup accesses (Count)
system.cpu.fpInstQueueReads                         0                       # Number of floating instruction queue reads (Count)
system.cpu.fpInstQueueWrites                        0                       # Number of floating instruction queue writes (Count)
system.cpu.fpInstQueueWakeupAccesses                0                       # Number of floating instruction queue wakeup accesses (Count)
system.cpu.vecInstQueueReads                        0                       # Number of vector instruction queue reads (Count)
system.cpu.vecInstQueueWrites                       0                       # Number of vector instruction queue writes (Count)
system.cpu.vecInstQueueWakeupAccesses               0                       # Number of vector instruction queue wakeup accesses (Count)
system.cpu.intAluAccesses                    20156307                       # Number of integer alu accesses (Count)
system.cpu.fpAluAccesses                            0                       # Number of floating point alu accesses (Count)
system.cpu.vecAluAccesses                           0                       # Number of vector alu accesses (Count)
system.cpu.idleCycles                               0                       # Number of cycles IEW is idle (Cycle)
system.cpu.squashCycles                        241110                       # Number of cycles IEW is squashing (Cycle)
system.cpu.blockCycles                         589499                       # Number of cycles IEW is blocking (Cycle)
system.cpu.unblockCycles                        77355                       # Number of cycles IEW is unblocking (Cycle)
system.cpu.dispatchedInsts                   20795848                       # Number of instructions dispatched to IQ (Count)
system.cpu.dispSquashedInsts                      146                       # Number of squashed instructions skipped by dispatch (Count)
system.cpu.dispLoadInsts                      4223688                       # Number of dispatched load instructions (Count)
system.cpu.dispStoreInsts                     2156970                       # Number of dispatched store instructions (Count)
system.cpu.dispNonSpecInsts                        45                       # Number of dispatched non-speculative instructions (Count)
system.cpu.iqFullEvents                           234                       # Number of times the IQ has become full, causing a stall (Count)
system.cpu.lsqFullEvents                        77078                       # Number of times the LSQ has become full, causing a stall (Count)
system.cpu.memOrderViolationEvents                308                       # Number of memory order violations (Count)
system.cpu.predictedTakenIncorrect              68742                       # Number of branches that were predicted taken incorrectly (Count)
system.cpu.predictedNotTakenIncorrect          178163                       # Number of branches that were predicted not taken incorrectly (Count)
system.cpu.branchMispredicts                   246905                       # Number of branch mispredicts detected at execute (Count)
system.cpu.numInsts                          19952368                       # Number of executed instructions (Count)
system.cpu.numLoadInsts                       3969278                       # Number of load instructions executed (Count)
system.cpu.numSquashedInsts                      8159                       # Number of squashed instructions skipped in execute (Count)
system.cpu.numSwp                                   0                       # Number of swp insts executed (Count)
system.cpu.numNop                                   0                       # Number of nop insts executed (Count)
system.cpu.numRefs                            5878173                       # Number of memory reference insts executed (Count)
system.cpu.numBranches                        2532436                       # Number of branches executed (Count)
system.cpu.numStoreInsts                      1908895                       # Number of stores executed (Count)
system.cpu.numRate                           2.637980                       # Inst execution rate ((Count/Cycle))
system.cpu.instsToCommit                     19920197                       # Cumulative count of insts sent to commit (Count)
system.cpu.writebackCount                    19676198                       # Cumulative count of insts written-back (Count)
system.cpu.producerInst                      13639541                       # Number of instructions producing a value (Count)
system.cpu.consumerInst                      21626428                       # Number of instructions consuming a value (Count)
system.cpu.wbRate                            2.601467                       # Insts written-back per cycle ((Count/Cycle))
system.cpu.wbFanout                          0.630689                       # Average fanout of values written-back ((Count/Count))
system.cpu.timesIdled                             282                       # Number of times that the entire CPU went into an idle state and unscheduled itself (Count)
system.cpu.idleCycles                           34465                       # Total number of cycles that the CPU has spent unscheduled due to idling (Cycle)
system.cpu.committedInsts                    10000002                       # Number of Instructions Simulated (Count)
system.cpu.committedOps                      18039886                       # Number of Ops (including micro ops) Simulated (Count)
system.cpu.cpi                               0.756350                       # CPI: Cycles Per Instruction ((Cycle/Count))
system.cpu.totalCpi                          0.756350                       # CPI: Total CPI of All Threads ((Cycle/Count))
system.cpu.ipc                               1.322139                       # IPC: Instructions Per Cycle ((Count/Cycle))
system.cpu.totalIpc                          1.322139                       # IPC: Total IPC of All Threads ((Count/Cycle))
system.cpu.intRegfileReads                   29135748                       # Number of integer regfile reads (Count)
system.cpu.intRegfileWrites                  15235603                       # Number of integer regfile writes (Count)
system.cpu.ccRegfileReads                     8818409                       # number of cc regfile reads (Count)
system.cpu.ccRegfileWrites                    5796376                       # number of cc regfile writes (Count)
system.cpu.miscRegfileReads                  10560046                       # number of misc regfile reads (Count)
system.cpu.miscRegfileWrites                        8                       # number of misc regfile writes (Count)
system.cpu.MemDepUnit__0.insertedLoads        4223688                       # Number of loads inserted to the mem dependence unit. (Count)
system.cpu.MemDepUnit__0.insertedStores       2156970                       # Number of stores inserted to the mem dependence unit. (Count)
system.cpu.MemDepUnit__0.conflictingLoads       594348                       # Number of conflicting loads. (Count)
system.cpu.MemDepUnit__0.conflictingStores       301682                       # Number of conflicting stores. (Count)
system.cpu.MemDepUnit__1.insertedLoads              0                       # Number of loads inserted to the mem dependence unit. (Count)
system.cpu.MemDepUnit__1.insertedStores             0                       # Number of stores inserted to the mem dependence unit. (Count)
system.cpu.MemDepUnit__1.conflictingLoads            0                       # Number of conflicting loads. (Count)
system.cpu.MemDepUnit__1.conflictingStores            0                       # Number of conflicting stores. (Count)
system.cpu.MemDepUnit__2.insertedLoads              0                       # Number of loads inserted to the mem dependence unit. (Count)
system.cpu.MemDepUnit__2.insertedStores             0                       # Number of stores inserted to the mem dependence unit. (Count)
system.cpu.MemDepUnit__2.conflictingLoads            0                       # Number of conflicting loads. (Count)
system.cpu.MemDepUnit__2.conflictingStores            0                       # Number of conflicting stores. (Count)
system.cpu.MemDepUnit__3.insertedLoads              0                       # Number of loads inserted to the mem dependence unit. (Count)
system.cpu.MemDepUnit__3.insertedStores             0                       # Number of stores inserted to the mem dependence unit. (Count)
system.cpu.MemDepUnit__3.conflictingLoads            0                       # Number of conflicting loads. (Count)
system.cpu.MemDepUnit__3.conflictingStores            0                       # Number of conflicting stores. (Count)
system.cpu.branchPred.lookups                 2668228                       # Number of BP lookups (Count)
system.cpu.branchPred.condPredicted           1636165                       # Number of conditional branches predicted (Count)
system.cpu.branchPred.condIncorrect            138039                       # Number of conditional branches incorrect (Count)
system.cpu.branchPred.BTBLookups              1118829                       # Number of BTB lookups (Count)
system.cpu.branchPred.BTBHits                 1083635                       # Number of BTB hits (Count)
system.cpu.branchPred.BTBHitRatio            0.968544                       # BTB Hit Ratio (Ratio)
system.cpu.branchPred.RASUsed                  412654                       # Number of times the RAS was used to get a target. (Count)
system.cpu.branchPred.RASIncorrect              68609                       # Number of incorrect RAS predictions. (Count)
system.cpu.branchPred.indirectLookups           69143                       # Number of indirect predictor lookups. (Count)
system.cpu.branchPred.indirectHits              68844                       # Number of indirect target hits. (Count)
system.cpu.branchPred.indirectMisses              299                       # Number of indirect misses. (Count)
system.cpu.branchPred.indirectMispredicted           90                       # Number of mispredicted indirect branches. (Count)
system.cpu.commit.commitSquashedInsts         2720283                       # The number of squashed insts skipped by commit (Count)
system.cpu.commit.commitNonSpecStalls               7                       # The number of times commit has been forced to stall to communicate backwards (Count)
system.cpu.commit.branchMispredicts            206490                       # The number of times a branch was mispredicted (Count)
system.cpu.commit.numCommittedDist::samples      6709541                       # Number of insts commited each cycle (Count)
system.cpu.commit.numCommittedDist::mean     2.688692                       # Number of insts commited each cycle (Count)
system.cpu.commit.numCommittedDist::stdev     3.046601                       # Number of insts commited each cycle (Count)
system.cpu.commit.numCommittedDist::underflows            0      0.00%      0.00% # Number of insts commited each cycle (Count)
system.cpu.commit.numCommittedDist::0         2459976     36.66%     36.66% # Number of insts commited each cycle (Count)
system.cpu.commit.numCommittedDist::1         1067094     15.90%     52.57% # Number of insts commited each cycle (Count)
system.cpu.commit.numCommittedDist::2          550225      8.20%     60.77% # Number of insts commited each cycle (Count)
system.cpu.commit.numCommittedDist::3          659199      9.82%     70.59% # Number of insts commited each cycle (Count)
system.cpu.commit.numCommittedDist::4          140392      2.09%     72.69% # Number of insts commited each cycle (Count)
system.cpu.commit.numCommittedDist::5          278040      4.14%     76.83% # Number of insts commited each cycle (Count)
system.cpu.commit.numCommittedDist::6          147947      2.21%     79.03% # Number of insts commited each cycle (Count)
system.cpu.commit.numCommittedDist::7          198049      2.95%     81.99% # Number of insts commited each cycle (Count)
system.cpu.commit.numCommittedDist::8         1208619     18.01%    100.00% # Number of insts commited each cycle (Count)
system.cpu.commit.numCommittedDist::overflows            0      0.00%    100.00% # Number of insts commited each cycle (Count)
system.cpu.commit.numCommittedDist::min_value            0                       # Number of insts commited each cycle (Count)
system.cpu.commit.numCommittedDist::max_value            8                       # Number of insts commited each cycle (Count)
system.cpu.commit.numCommittedDist::total      6709541                       # Number of insts commited each cycle (Count)
system.cpu.commit.instsCommitted             10000002                       # Number of instructions committed (Count)
system.cpu.commit.opsCommitted               18039886                       # Number of ops (including micro ops) committed (Count)
system.cpu.commit.memRefs                     5392689                       # Number of memory references committed (Count)
system.cpu.commit.loads                       3485730                       # Number of loads committed (Count)
system.cpu.commit.amos                              0                       # Number of atomic instructions committed (Count)
system.cpu.commit.membars                           0                       # Number of memory barriers committed (Count)
system.cpu.commit.branches                    2284717                       # Number of branches committed (Count)
system.cpu.commit.vectorInstructions                0                       # Number of committed Vector instructions. (Count)
system.cpu.commit.floating                          0                       # Number of committed floating point instructions. (Count)
system.cpu.commit.integer                    18022879                       # Number of committed integer instructions. (Count)
system.cpu.commit.functionCalls                274815                       # Number of function calls committed. (Count)
system.cpu.commit.committedInstType_0::No_OpClass           18      0.00%      0.00% # Class of committed instruction (Count)
system.cpu.commit.committedInstType_0::IntAlu     12647080     70.11%     70.11% # Class of committed instruction (Count)
system.cpu.commit.committedInstType_0::IntMult           22      0.00%     70.11% # Class of committed instruction (Count)
system.cpu.commit.committedInstType_0::IntDiv           77      0.00%     70.11% # Class of committed instruction (Count)
system.cpu.commit.committedInstType_0::FloatAdd            0      0.00%     70.11% # Class of committed instruction (Count)
system.cpu.commit.committedInstType_0::FloatCmp            0      0.00%     70.11% # Class of committed instruction (Count)
system.cpu.commit.committedInstType_0::FloatCvt            0      0.00%     70.11% # Class of committed instruction (Count)
system.cpu.commit.committedInstType_0::FloatMult            0      0.00%     70.11% # Class of committed instruction (Count)
system.cpu.commit.committedInstType_0::FloatMultAcc            0      0.00%     70.11% # Class of committed instruction (Count)
system.cpu.commit.committedInstType_0::FloatDiv            0      0.00%     70.11% # Class of committed instruction (Count)
system.cpu.commit.committedInstType_0::FloatMisc            0      0.00%     70.11% # Class of committed instruction (Count)
system.cpu.commit.committedInstType_0::FloatSqrt            0      0.00%     70.11% # Class of committed instruction (Count)
system.cpu.commit.committedInstType_0::SimdAdd            0      0.00%     70.11% # Class of committed instruction (Count)
system.cpu.commit.committedInstType_0::SimdAddAcc            0      0.00%     70.11% # Class of committed instruction (Count)
system.cpu.commit.committedInstType_0::SimdAlu            0      0.00%     70.11% # Class of committed instruction (Count)
system.cpu.commit.committedInstType_0::SimdCmp            0      0.00%     70.11% # Class of committed instruction (Count)
system.cpu.commit.committedInstType_0::SimdCvt            0      0.00%     70.11% # Class of committed instruction (Count)
system.cpu.commit.committedInstType_0::SimdMisc            0      0.00%     70.11% # Class of committed instruction (Count)
system.cpu.commit.committedInstType_0::SimdMult            0      0.00%     70.11% # Class of committed instruction (Count)
system.cpu.commit.committedInstType_0::SimdMultAcc            0      0.00%     70.11% # Class of committed instruction (Count)
system.cpu.commit.committedInstType_0::SimdShift            0      0.00%     70.11% # Class of committed instruction (Count)
system.cpu.commit.committedInstType_0::SimdShiftAcc            0      0.00%     70.11% # Class of committed instruction (Count)
system.cpu.commit.committedInstType_0::SimdDiv            0      0.00%     70.11% # Class of committed instruction (Count)
system.cpu.commit.committedInstType_0::SimdSqrt            0      0.00%     70.11% # Class of committed instruction (Count)
system.cpu.commit.committedInstType_0::SimdFloatAdd            0      0.00%     70.11% # Class of committed instruction (Count)
system.cpu.commit.committedInstType_0::SimdFloatAlu            0      0.00%     70.11% # Class of committed instruction (Count)
system.cpu.commit.committedInstType_0::SimdFloatCmp            0      0.00%     70.11% # Class of committed instruction (Count)
system.cpu.commit.committedInstType_0::SimdFloatCvt            0      0.00%     70.11% # Class of committed instruction (Count)
system.cpu.commit.committedInstType_0::SimdFloatDiv            0      0.00%     70.11% # Class of committed instruction (Count)
system.cpu.commit.committedInstType_0::SimdFloatMisc            0      0.00%     70.11% # Class of committed instruction (Count)
system.cpu.commit.committedInstType_0::SimdFloatMult            0      0.00%     70.11% # Class of committed instruction (Count)
system.cpu.commit.committedInstType_0::SimdFloatMultAcc            0      0.00%     70.11% # Class of committed instruction (Count)
system.cpu.commit.committedInstType_0::SimdFloatSqrt            0      0.00%     70.11% # Class of committed instruction (Count)
system.cpu.commit.committedInstType_0::SimdReduceAdd            0      0.00%     70.11% # Class of committed instruction (Count)
system.cpu.commit.committedInstType_0::SimdReduceAlu            0      0.00%     70.11% # Class of committed instruction (Count)
system.cpu.commit.committedInstType_0::SimdReduceCmp            0      0.00%     70.11% # Class of committed instruction (Count)
system.cpu.commit.committedInstType_0::SimdFloatReduceAdd            0      0.00%     70.11% # Class of committed instruction (Count)
system.cpu.commit.committedInstType_0::SimdFloatReduceCmp            0      0.00%     70.11% # Class of committed instruction (Count)
system.cpu.commit.committedInstType_0::SimdAes            0      0.00%     70.11% # Class of committed instruction (Count)
system.cpu.commit.committedInstType_0::SimdAesMix            0      0.00%     70.11% # Class of committed instruction (Count)
system.cpu.commit.committedInstType_0::SimdSha1Hash            0      0.00%     70.11% # Class of committed instruction (Count)
system.cpu.commit.committedInstType_0::SimdSha1Hash2            0      0.00%     70.11% # Class of committed instruction (Count)
system.cpu.commit.committedInstType_0::SimdSha256Hash            0      0.00%     70.11% # Class of committed instruction (Count)
system.cpu.commit.committedInstType_0::SimdSha256Hash2            0      0.00%     70.11% # Class of committed instruction (Count)
system.cpu.commit.committedInstType_0::SimdShaSigma2            0      0.00%     70.11% # Class of committed instruction (Count)
system.cpu.commit.committedInstType_0::SimdShaSigma3            0      0.00%     70.11% # Class of committed instruction (Count)
system.cpu.commit.committedInstType_0::SimdPredAlu            0      0.00%     70.11% # Class of committed instruction (Count)
system.cpu.commit.committedInstType_0::MemRead      3485730     19.32%     89.43% # Class of committed instruction (Count)
system.cpu.commit.committedInstType_0::MemWrite      1906959     10.57%    100.00% # Class of committed instruction (Count)
system.cpu.commit.committedInstType_0::FloatMemRead            0      0.00%    100.00% # Class of committed instruction (Count)
system.cpu.commit.committedInstType_0::FloatMemWrite            0      0.00%    100.00% # Class of committed instruction (Count)
system.cpu.commit.committedInstType_0::IprAccess            0      0.00%    100.00% # Class of committed instruction (Count)
system.cpu.commit.committedInstType_0::InstPrefetch            0      0.00%    100.00% # Class of committed instruction (Count)
system.cpu.commit.committedInstType_0::total     18039886                       # Class of committed instruction (Count)
system.cpu.commit.commitEligibleSamples       1208619                       # number cycles where commit BW limit reached (Cycle)
system.cpu.dcache.demandHits::cpu.data        5068047                       # number of demand (read+write) hits (Count)
system.cpu.dcache.demandHits::total           5068047                       # number of demand (read+write) hits (Count)
system.cpu.dcache.overallHits::cpu.data       5068047                       # number of overall hits (Count)
system.cpu.dcache.overallHits::total          5068047                       # number of overall hits (Count)
system.cpu.dcache.demandMisses::cpu.data        15371                       # number of demand (read+write) misses (Count)
system.cpu.dcache.demandMisses::total           15371                       # number of demand (read+write) misses (Count)
system.cpu.dcache.overallMisses::cpu.data        15371                       # number of overall misses (Count)
system.cpu.dcache.overallMisses::total          15371                       # number of overall misses (Count)
system.cpu.dcache.demandMissLatency::cpu.data    345167999                       # number of demand (read+write) miss ticks (Tick)
system.cpu.dcache.demandMissLatency::total    345167999                       # number of demand (read+write) miss ticks (Tick)
system.cpu.dcache.overallMissLatency::cpu.data    345167999                       # number of overall miss ticks (Tick)
system.cpu.dcache.overallMissLatency::total    345167999                       # number of overall miss ticks (Tick)
system.cpu.dcache.demandAccesses::cpu.data      5083418                       # number of demand (read+write) accesses (Count)
system.cpu.dcache.demandAccesses::total       5083418                       # number of demand (read+write) accesses (Count)
system.cpu.dcache.overallAccesses::cpu.data      5083418                       # number of overall (read+write) accesses (Count)
system.cpu.dcache.overallAccesses::total      5083418                       # number of overall (read+write) accesses (Count)
system.cpu.dcache.demandMissRate::cpu.data     0.003024                       # miss rate for demand accesses (Ratio)
system.cpu.dcache.demandMissRate::total      0.003024                       # miss rate for demand accesses (Ratio)
system.cpu.dcache.overallMissRate::cpu.data     0.003024                       # miss rate for overall accesses (Ratio)
system.cpu.dcache.overallMissRate::total     0.003024                       # miss rate for overall accesses (Ratio)
system.cpu.dcache.demandAvgMissLatency::cpu.data 22455.793312                       # average overall miss latency ((Cycle/Count))
system.cpu.dcache.demandAvgMissLatency::total 22455.793312                       # average overall miss latency ((Cycle/Count))
system.cpu.dcache.overallAvgMissLatency::cpu.data 22455.793312                       # average overall miss latency ((Cycle/Count))
system.cpu.dcache.overallAvgMissLatency::total 22455.793312                       # average overall miss latency ((Cycle/Count))
system.cpu.dcache.blockedCycles::no_mshrs          512                       # number of cycles access was blocked (Cycle)
system.cpu.dcache.blockedCycles::no_targets            0                       # number of cycles access was blocked (Cycle)
system.cpu.dcache.blockedCauses::no_mshrs           18                       # number of times access was blocked (Count)
system.cpu.dcache.blockedCauses::no_targets            0                       # number of times access was blocked (Count)
system.cpu.dcache.avgBlocked::no_mshrs      28.444444                       # average number of cycles each access was blocked ((Cycle/Count))
system.cpu.dcache.avgBlocked::no_targets          nan                       # average number of cycles each access was blocked ((Cycle/Count))
system.cpu.dcache.writebacks::writebacks         1194                       # number of writebacks (Count)
system.cpu.dcache.writebacks::total              1194                       # number of writebacks (Count)
system.cpu.dcache.demandMshrHits::cpu.data        11485                       # number of demand (read+write) MSHR hits (Count)
system.cpu.dcache.demandMshrHits::total         11485                       # number of demand (read+write) MSHR hits (Count)
system.cpu.dcache.overallMshrHits::cpu.data        11485                       # number of overall MSHR hits (Count)
system.cpu.dcache.overallMshrHits::total        11485                       # number of overall MSHR hits (Count)
system.cpu.dcache.demandMshrMisses::cpu.data         3886                       # number of demand (read+write) MSHR misses (Count)
system.cpu.dcache.demandMshrMisses::total         3886                       # number of demand (read+write) MSHR misses (Count)
system.cpu.dcache.overallMshrMisses::cpu.data         3886                       # number of overall MSHR misses (Count)
system.cpu.dcache.overallMshrMisses::total         3886                       # number of overall MSHR misses (Count)
system.cpu.dcache.demandMshrMissLatency::cpu.data    232956499                       # number of demand (read+write) MSHR miss ticks (Tick)
system.cpu.dcache.demandMshrMissLatency::total    232956499                       # number of demand (read+write) MSHR miss ticks (Tick)
system.cpu.dcache.overallMshrMissLatency::cpu.data    232956499                       # number of overall MSHR miss ticks (Tick)
system.cpu.dcache.overallMshrMissLatency::total    232956499                       # number of overall MSHR miss ticks (Tick)
system.cpu.dcache.demandMshrMissRate::cpu.data     0.000764                       # mshr miss ratio for demand accesses (Ratio)
system.cpu.dcache.demandMshrMissRate::total     0.000764                       # mshr miss ratio for demand accesses (Ratio)
system.cpu.dcache.overallMshrMissRate::cpu.data     0.000764                       # mshr miss ratio for overall accesses (Ratio)
system.cpu.dcache.overallMshrMissRate::total     0.000764                       # mshr miss ratio for overall accesses (Ratio)
system.cpu.dcache.demandAvgMshrMissLatency::cpu.data 59947.632270                       # average overall mshr miss latency ((Cycle/Count))
system.cpu.dcache.demandAvgMshrMissLatency::total 59947.632270                       # average overall mshr miss latency ((Cycle/Count))
system.cpu.dcache.overallAvgMshrMissLatency::cpu.data 59947.632270                       # average overall mshr miss latency ((Cycle/Count))
system.cpu.dcache.overallAvgMshrMissLatency::total 59947.632270                       # average overall mshr miss latency ((Cycle/Count))
system.cpu.dcache.replacements                   3372                       # number of replacements (Count)
system.cpu.dcache.ReadReq.hits::cpu.data      3162224                       # number of ReadReq hits (Count)
system.cpu.dcache.ReadReq.hits::total         3162224                       # number of ReadReq hits (Count)
system.cpu.dcache.ReadReq.misses::cpu.data        14235                       # number of ReadReq misses (Count)
system.cpu.dcache.ReadReq.misses::total         14235                       # number of ReadReq misses (Count)
system.cpu.dcache.ReadReq.missLatency::cpu.data    258380500                       # number of ReadReq miss ticks (Tick)
system.cpu.dcache.ReadReq.missLatency::total    258380500                       # number of ReadReq miss ticks (Tick)
system.cpu.dcache.ReadReq.accesses::cpu.data      3176459                       # number of ReadReq accesses(hits+misses) (Count)
system.cpu.dcache.ReadReq.accesses::total      3176459                       # number of ReadReq accesses(hits+misses) (Count)
system.cpu.dcache.ReadReq.missRate::cpu.data     0.004481                       # miss rate for ReadReq accesses (Ratio)
system.cpu.dcache.ReadReq.missRate::total     0.004481                       # miss rate for ReadReq accesses (Ratio)
system.cpu.dcache.ReadReq.avgMissLatency::cpu.data 18151.071303                       # average ReadReq miss latency ((Tick/Count))
system.cpu.dcache.ReadReq.avgMissLatency::total 18151.071303                       # average ReadReq miss latency ((Tick/Count))
system.cpu.dcache.ReadReq.mshrHits::cpu.data        11482                       # number of ReadReq MSHR hits (Count)
system.cpu.dcache.ReadReq.mshrHits::total        11482                       # number of ReadReq MSHR hits (Count)
system.cpu.dcache.ReadReq.mshrMisses::cpu.data         2753                       # number of ReadReq MSHR misses (Count)
system.cpu.dcache.ReadReq.mshrMisses::total         2753                       # number of ReadReq MSHR misses (Count)
system.cpu.dcache.ReadReq.mshrMissLatency::cpu.data    147408000                       # number of ReadReq MSHR miss ticks (Tick)
system.cpu.dcache.ReadReq.mshrMissLatency::total    147408000                       # number of ReadReq MSHR miss ticks (Tick)
system.cpu.dcache.ReadReq.mshrMissRate::cpu.data     0.000867                       # mshr miss rate for ReadReq accesses (Ratio)
system.cpu.dcache.ReadReq.mshrMissRate::total     0.000867                       # mshr miss rate for ReadReq accesses (Ratio)
system.cpu.dcache.ReadReq.avgMshrMissLatency::cpu.data 53544.496912                       # average ReadReq mshr miss latency ((Tick/Count))
system.cpu.dcache.ReadReq.avgMshrMissLatency::total 53544.496912                       # average ReadReq mshr miss latency ((Tick/Count))
system.cpu.dcache.WriteReq.hits::cpu.data      1905823                       # number of WriteReq hits (Count)
system.cpu.dcache.WriteReq.hits::total        1905823                       # number of WriteReq hits (Count)
system.cpu.dcache.WriteReq.misses::cpu.data         1136                       # number of WriteReq misses (Count)
system.cpu.dcache.WriteReq.misses::total         1136                       # number of WriteReq misses (Count)
system.cpu.dcache.WriteReq.missLatency::cpu.data     86787499                       # number of WriteReq miss ticks (Tick)
system.cpu.dcache.WriteReq.missLatency::total     86787499                       # number of WriteReq miss ticks (Tick)
system.cpu.dcache.WriteReq.accesses::cpu.data      1906959                       # number of WriteReq accesses(hits+misses) (Count)
system.cpu.dcache.WriteReq.accesses::total      1906959                       # number of WriteReq accesses(hits+misses) (Count)
system.cpu.dcache.WriteReq.missRate::cpu.data     0.000596                       # miss rate for WriteReq accesses (Ratio)
system.cpu.dcache.WriteReq.missRate::total     0.000596                       # miss rate for WriteReq accesses (Ratio)
system.cpu.dcache.WriteReq.avgMissLatency::cpu.data 76397.446303                       # average WriteReq miss latency ((Tick/Count))
system.cpu.dcache.WriteReq.avgMissLatency::total 76397.446303                       # average WriteReq miss latency ((Tick/Count))
system.cpu.dcache.WriteReq.mshrHits::cpu.data            3                       # number of WriteReq MSHR hits (Count)
system.cpu.dcache.WriteReq.mshrHits::total            3                       # number of WriteReq MSHR hits (Count)
system.cpu.dcache.WriteReq.mshrMisses::cpu.data         1133                       # number of WriteReq MSHR misses (Count)
system.cpu.dcache.WriteReq.mshrMisses::total         1133                       # number of WriteReq MSHR misses (Count)
system.cpu.dcache.WriteReq.mshrMissLatency::cpu.data     85548499                       # number of WriteReq MSHR miss ticks (Tick)
system.cpu.dcache.WriteReq.mshrMissLatency::total     85548499                       # number of WriteReq MSHR miss ticks (Tick)
system.cpu.dcache.WriteReq.mshrMissRate::cpu.data     0.000594                       # mshr miss rate for WriteReq accesses (Ratio)
system.cpu.dcache.WriteReq.mshrMissRate::total     0.000594                       # mshr miss rate for WriteReq accesses (Ratio)
system.cpu.dcache.WriteReq.avgMshrMissLatency::cpu.data 75506.177405                       # average WriteReq mshr miss latency ((Tick/Count))
system.cpu.dcache.WriteReq.avgMshrMissLatency::total 75506.177405                       # average WriteReq mshr miss latency ((Tick/Count))
system.cpu.dcache.power_state.pwrStateResidencyTicks::UNDEFINED   3781750500                       # Cumulative time (in ticks) in various power states (Tick)
system.cpu.dcache.tags.tagsInUse           470.312858                       # Average ticks per tags in use ((Tick/Count))
system.cpu.dcache.tags.totalRefs              5071933                       # Total number of references to valid blocks. (Count)
system.cpu.dcache.tags.sampledRefs               3884                       # Sample count of references to valid blocks. (Count)
system.cpu.dcache.tags.avgRefs            1305.852987                       # Average number of references to valid blocks. ((Count/Count))
system.cpu.dcache.tags.warmupTick              176500                       # The tick when the warmup percentage was hit. (Tick)
system.cpu.dcache.tags.occupancies::cpu.data   470.312858                       # Average occupied blocks per tick, per requestor ((Count/Tick))
system.cpu.dcache.tags.avgOccs::cpu.data     0.918580                       # Average percentage of cache occupancy ((Ratio/Tick))
system.cpu.dcache.tags.avgOccs::total        0.918580                       # Average percentage of cache occupancy ((Ratio/Tick))
system.cpu.dcache.tags.occupanciesTaskId::1024          512                       # Occupied blocks per task id (Count)
system.cpu.dcache.tags.ageTaskId_1024::0            5                       # Occupied blocks per task id, per block age (Count)
system.cpu.dcache.tags.ageTaskId_1024::1           39                       # Occupied blocks per task id, per block age (Count)
system.cpu.dcache.tags.ageTaskId_1024::2          384                       # Occupied blocks per task id, per block age (Count)
system.cpu.dcache.tags.ageTaskId_1024::3           84                       # Occupied blocks per task id, per block age (Count)
system.cpu.dcache.tags.ratioOccsTaskId::1024            1                       # Ratio of occupied blocks and all blocks, per task id (Ratio)
system.cpu.dcache.tags.tagAccesses           20337556                       # Number of tag accesses (Count)
system.cpu.dcache.tags.dataAccesses          20337556                       # Number of data accesses (Count)
system.cpu.dcache.tags.power_state.pwrStateResidencyTicks::UNDEFINED   3781750500                       # Cumulative time (in ticks) in various power states (Tick)
system.cpu.decode.idleCycles                  2971389                       # Number of cycles decode is idle (Cycle)
system.cpu.decode.blockedCycles                758043                       # Number of cycles decode is blocked (Cycle)
system.cpu.decode.runCycles                   3512184                       # Number of cycles decode is running (Cycle)
system.cpu.decode.unblockCycles                 46311                       # Number of cycles decode is unblocking (Cycle)
system.cpu.decode.squashCycles                 241110                       # Number of cycles decode is squashing (Cycle)
system.cpu.decode.branchResolved              1055182                       # Number of times decode resolved a branch (Count)
system.cpu.decode.branchMispred                 34592                       # Number of times decode detected a branch misprediction (Count)
system.cpu.decode.decodedInsts               21133145                       # Number of instructions handled by decode (Count)
system.cpu.decode.squashedInsts                 69949                       # Number of squashed instructions handled by decode (Count)
system.cpu.dtb_walker_cache.blockedCycles::no_mshrs            0                       # number of cycles access was blocked (Cycle)
system.cpu.dtb_walker_cache.blockedCycles::no_targets            0                       # number of cycles access was blocked (Cycle)
system.cpu.dtb_walker_cache.blockedCauses::no_mshrs            0                       # number of times access was blocked (Count)
system.cpu.dtb_walker_cache.blockedCauses::no_targets            0                       # number of times access was blocked (Count)
system.cpu.dtb_walker_cache.avgBlocked::no_mshrs          nan                       # average number of cycles each access was blocked ((Cycle/Count))
system.cpu.dtb_walker_cache.avgBlocked::no_targets          nan                       # average number of cycles each access was blocked ((Cycle/Count))
system.cpu.dtb_walker_cache.replacements            0                       # number of replacements (Count)
system.cpu.dtb_walker_cache.power_state.pwrStateResidencyTicks::UNDEFINED   3781750500                       # Cumulative time (in ticks) in various power states (Tick)
system.cpu.dtb_walker_cache.tags.tagsInUse            0                       # Average ticks per tags in use ((Tick/Count))
system.cpu.dtb_walker_cache.tags.totalRefs            0                       # Total number of references to valid blocks. (Count)
system.cpu.dtb_walker_cache.tags.sampledRefs            0                       # Sample count of references to valid blocks. (Count)
system.cpu.dtb_walker_cache.tags.avgRefs          nan                       # Average number of references to valid blocks. ((Count/Count))
system.cpu.dtb_walker_cache.tags.warmupTick            0                       # The tick when the warmup percentage was hit. (Tick)
system.cpu.dtb_walker_cache.tags.tagAccesses            0                       # Number of tag accesses (Count)
system.cpu.dtb_walker_cache.tags.dataAccesses            0                       # Number of data accesses (Count)
system.cpu.dtb_walker_cache.tags.power_state.pwrStateResidencyTicks::UNDEFINED   3781750500                       # Cumulative time (in ticks) in various power states (Tick)
system.cpu.fetch.icacheStallCycles            1886425                       # Number of cycles fetch is stalled on an Icache miss (Cycle)
system.cpu.fetch.insts                       11706827                       # Number of instructions fetch has processed (Count)
system.cpu.fetch.branches                     2668228                       # Number of branches that fetch encountered (Count)
system.cpu.fetch.predictedBranches            1565133                       # Number of branches that fetch has predicted taken (Count)
system.cpu.fetch.cycles                       3837075                       # Number of cycles fetch has run and was not squashing or blocked (Cycle)
system.cpu.fetch.squashCycles                  551388                       # Number of cycles fetch has spent squashing (Cycle)
system.cpu.fetch.miscStallCycles               171559                       # Number of cycles fetch has spent waiting on interrupts, or bad addresses, or out of MSHRs (Cycle)
system.cpu.fetch.pendingTrapStallCycles       1358268                       # Number of stall cycles due to pending traps (Cycle)
system.cpu.fetch.pendingQuiesceStallCycles            1                       # Number of stall cycles due to pending quiesce instructions (Cycle)
system.cpu.fetch.icacheWaitRetryStallCycles           15                       # Number of stall cycles due to full MSHR (Cycle)
system.cpu.fetch.cacheLines                   1866126                       # Number of cache lines fetched (Count)
system.cpu.fetch.icacheSquashes                 71079                       # Number of outstanding Icache misses that were squashed (Count)
system.cpu.fetch.nisnDist::samples            7529037                       # Number of instructions fetched each cycle (Total) (Count)
system.cpu.fetch.nisnDist::mean              2.835795                       # Number of instructions fetched each cycle (Total) (Count)
system.cpu.fetch.nisnDist::stdev             3.426617                       # Number of instructions fetched each cycle (Total) (Count)
system.cpu.fetch.nisnDist::underflows               0      0.00%      0.00% # Number of instructions fetched each cycle (Total) (Count)
system.cpu.fetch.nisnDist::0                  4038350     53.64%     53.64% # Number of instructions fetched each cycle (Total) (Count)
system.cpu.fetch.nisnDist::1                   206443      2.74%     56.38% # Number of instructions fetched each cycle (Total) (Count)
system.cpu.fetch.nisnDist::2                   206608      2.74%     59.12% # Number of instructions fetched each cycle (Total) (Count)
system.cpu.fetch.nisnDist::3                   103591      1.38%     60.50% # Number of instructions fetched each cycle (Total) (Count)
system.cpu.fetch.nisnDist::4                   344203      4.57%     65.07% # Number of instructions fetched each cycle (Total) (Count)
system.cpu.fetch.nisnDist::5                   378384      5.03%     70.10% # Number of instructions fetched each cycle (Total) (Count)
system.cpu.fetch.nisnDist::6                   412599      5.48%     75.58% # Number of instructions fetched each cycle (Total) (Count)
system.cpu.fetch.nisnDist::7                    34825      0.46%     76.04% # Number of instructions fetched each cycle (Total) (Count)
system.cpu.fetch.nisnDist::8                  1804034     23.96%    100.00% # Number of instructions fetched each cycle (Total) (Count)
system.cpu.fetch.nisnDist::overflows                0      0.00%    100.00% # Number of instructions fetched each cycle (Total) (Count)
system.cpu.fetch.nisnDist::min_value                0                       # Number of instructions fetched each cycle (Total) (Count)
system.cpu.fetch.nisnDist::max_value                8                       # Number of instructions fetched each cycle (Total) (Count)
system.cpu.fetch.nisnDist::total              7529037                       # Number of instructions fetched each cycle (Total) (Count)
system.cpu.fetch.branchRate                  0.352777                       # Number of branch fetches per cycle (Ratio)
system.cpu.fetch.rate                        1.547805                       # Number of inst fetches per cycle ((Count/Cycle))
system.cpu.icache.demandHits::cpu.inst        1865521                       # number of demand (read+write) hits (Count)
system.cpu.icache.demandHits::total           1865521                       # number of demand (read+write) hits (Count)
system.cpu.icache.overallHits::cpu.inst       1865521                       # number of overall hits (Count)
system.cpu.icache.overallHits::total          1865521                       # number of overall hits (Count)
system.cpu.icache.demandMisses::cpu.inst          605                       # number of demand (read+write) misses (Count)
system.cpu.icache.demandMisses::total             605                       # number of demand (read+write) misses (Count)
system.cpu.icache.overallMisses::cpu.inst          605                       # number of overall misses (Count)
system.cpu.icache.overallMisses::total            605                       # number of overall misses (Count)
system.cpu.icache.demandMissLatency::cpu.inst     45405499                       # number of demand (read+write) miss ticks (Tick)
system.cpu.icache.demandMissLatency::total     45405499                       # number of demand (read+write) miss ticks (Tick)
system.cpu.icache.overallMissLatency::cpu.inst     45405499                       # number of overall miss ticks (Tick)
system.cpu.icache.overallMissLatency::total     45405499                       # number of overall miss ticks (Tick)
system.cpu.icache.demandAccesses::cpu.inst      1866126                       # number of demand (read+write) accesses (Count)
system.cpu.icache.demandAccesses::total       1866126                       # number of demand (read+write) accesses (Count)
system.cpu.icache.overallAccesses::cpu.inst      1866126                       # number of overall (read+write) accesses (Count)
system.cpu.icache.overallAccesses::total      1866126                       # number of overall (read+write) accesses (Count)
system.cpu.icache.demandMissRate::cpu.inst     0.000324                       # miss rate for demand accesses (Ratio)
system.cpu.icache.demandMissRate::total      0.000324                       # miss rate for demand accesses (Ratio)
system.cpu.icache.overallMissRate::cpu.inst     0.000324                       # miss rate for overall accesses (Ratio)
system.cpu.icache.overallMissRate::total     0.000324                       # miss rate for overall accesses (Ratio)
system.cpu.icache.demandAvgMissLatency::cpu.inst 75050.411570                       # average overall miss latency ((Cycle/Count))
system.cpu.icache.demandAvgMissLatency::total 75050.411570                       # average overall miss latency ((Cycle/Count))
system.cpu.icache.overallAvgMissLatency::cpu.inst 75050.411570                       # average overall miss latency ((Cycle/Count))
system.cpu.icache.overallAvgMissLatency::total 75050.411570                       # average overall miss latency ((Cycle/Count))
system.cpu.icache.blockedCycles::no_mshrs          141                       # number of cycles access was blocked (Cycle)
system.cpu.icache.blockedCycles::no_targets            0                       # number of cycles access was blocked (Cycle)
system.cpu.icache.blockedCauses::no_mshrs            2                       # number of times access was blocked (Count)
system.cpu.icache.blockedCauses::no_targets            0                       # number of times access was blocked (Count)
system.cpu.icache.avgBlocked::no_mshrs      70.500000                       # average number of cycles each access was blocked ((Cycle/Count))
system.cpu.icache.avgBlocked::no_targets          nan                       # average number of cycles each access was blocked ((Cycle/Count))
system.cpu.icache.writebacks::writebacks           55                       # number of writebacks (Count)
system.cpu.icache.writebacks::total                55                       # number of writebacks (Count)
system.cpu.icache.demandMshrHits::cpu.inst          162                       # number of demand (read+write) MSHR hits (Count)
system.cpu.icache.demandMshrHits::total           162                       # number of demand (read+write) MSHR hits (Count)
system.cpu.icache.overallMshrHits::cpu.inst          162                       # number of overall MSHR hits (Count)
system.cpu.icache.overallMshrHits::total          162                       # number of overall MSHR hits (Count)
system.cpu.icache.demandMshrMisses::cpu.inst          443                       # number of demand (read+write) MSHR misses (Count)
system.cpu.icache.demandMshrMisses::total          443                       # number of demand (read+write) MSHR misses (Count)
system.cpu.icache.overallMshrMisses::cpu.inst          443                       # number of overall MSHR misses (Count)
system.cpu.icache.overallMshrMisses::total          443                       # number of overall MSHR misses (Count)
system.cpu.icache.demandMshrMissLatency::cpu.inst     35017000                       # number of demand (read+write) MSHR miss ticks (Tick)
system.cpu.icache.demandMshrMissLatency::total     35017000                       # number of demand (read+write) MSHR miss ticks (Tick)
system.cpu.icache.overallMshrMissLatency::cpu.inst     35017000                       # number of overall MSHR miss ticks (Tick)
system.cpu.icache.overallMshrMissLatency::total     35017000                       # number of overall MSHR miss ticks (Tick)
system.cpu.icache.demandMshrMissRate::cpu.inst     0.000237                       # mshr miss ratio for demand accesses (Ratio)
system.cpu.icache.demandMshrMissRate::total     0.000237                       # mshr miss ratio for demand accesses (Ratio)
system.cpu.icache.overallMshrMissRate::cpu.inst     0.000237                       # mshr miss ratio for overall accesses (Ratio)
system.cpu.icache.overallMshrMissRate::total     0.000237                       # mshr miss ratio for overall accesses (Ratio)
system.cpu.icache.demandAvgMshrMissLatency::cpu.inst 79045.146727                       # average overall mshr miss latency ((Cycle/Count))
system.cpu.icache.demandAvgMshrMissLatency::total 79045.146727                       # average overall mshr miss latency ((Cycle/Count))
system.cpu.icache.overallAvgMshrMissLatency::cpu.inst 79045.146727                       # average overall mshr miss latency ((Cycle/Count))
system.cpu.icache.overallAvgMshrMissLatency::total 79045.146727                       # average overall mshr miss latency ((Cycle/Count))
system.cpu.icache.replacements                     55                       # number of replacements (Count)
system.cpu.icache.ReadReq.hits::cpu.inst      1865521                       # number of ReadReq hits (Count)
system.cpu.icache.ReadReq.hits::total         1865521                       # number of ReadReq hits (Count)
system.cpu.icache.ReadReq.misses::cpu.inst          605                       # number of ReadReq misses (Count)
system.cpu.icache.ReadReq.misses::total           605                       # number of ReadReq misses (Count)
system.cpu.icache.ReadReq.missLatency::cpu.inst     45405499                       # number of ReadReq miss ticks (Tick)
system.cpu.icache.ReadReq.missLatency::total     45405499                       # number of ReadReq miss ticks (Tick)
system.cpu.icache.ReadReq.accesses::cpu.inst      1866126                       # number of ReadReq accesses(hits+misses) (Count)
system.cpu.icache.ReadReq.accesses::total      1866126                       # number of ReadReq accesses(hits+misses) (Count)
system.cpu.icache.ReadReq.missRate::cpu.inst     0.000324                       # miss rate for ReadReq accesses (Ratio)
system.cpu.icache.ReadReq.missRate::total     0.000324                       # miss rate for ReadReq accesses (Ratio)
system.cpu.icache.ReadReq.avgMissLatency::cpu.inst 75050.411570                       # average ReadReq miss latency ((Tick/Count))
system.cpu.icache.ReadReq.avgMissLatency::total 75050.411570                       # average ReadReq miss latency ((Tick/Count))
system.cpu.icache.ReadReq.mshrHits::cpu.inst          162                       # number of ReadReq MSHR hits (Count)
system.cpu.icache.ReadReq.mshrHits::total          162                       # number of ReadReq MSHR hits (Count)
system.cpu.icache.ReadReq.mshrMisses::cpu.inst          443                       # number of ReadReq MSHR misses (Count)
system.cpu.icache.ReadReq.mshrMisses::total          443                       # number of ReadReq MSHR misses (Count)
system.cpu.icache.ReadReq.mshrMissLatency::cpu.inst     35017000                       # number of ReadReq MSHR miss ticks (Tick)
system.cpu.icache.ReadReq.mshrMissLatency::total     35017000                       # number of ReadReq MSHR miss ticks (Tick)
system.cpu.icache.ReadReq.mshrMissRate::cpu.inst     0.000237                       # mshr miss rate for ReadReq accesses (Ratio)
system.cpu.icache.ReadReq.mshrMissRate::total     0.000237                       # mshr miss rate for ReadReq accesses (Ratio)
system.cpu.icache.ReadReq.avgMshrMissLatency::cpu.inst 79045.146727                       # average ReadReq mshr miss latency ((Tick/Count))
system.cpu.icache.ReadReq.avgMshrMissLatency::total 79045.146727                       # average ReadReq mshr miss latency ((Tick/Count))
system.cpu.icache.power_state.pwrStateResidencyTicks::UNDEFINED   3781750500                       # Cumulative time (in ticks) in various power states (Tick)
system.cpu.icache.tags.tagsInUse           374.726918                       # Average ticks per tags in use ((Tick/Count))
system.cpu.icache.tags.totalRefs              1865964                       # Total number of references to valid blocks. (Count)
system.cpu.icache.tags.sampledRefs                443                       # Sample count of references to valid blocks. (Count)
system.cpu.icache.tags.avgRefs            4212.108352                       # Average number of references to valid blocks. ((Count/Count))
system.cpu.icache.tags.warmupTick               87500                       # The tick when the warmup percentage was hit. (Tick)
system.cpu.icache.tags.occupancies::cpu.inst   374.726918                       # Average occupied blocks per tick, per requestor ((Count/Tick))
system.cpu.icache.tags.avgOccs::cpu.inst     0.731889                       # Average percentage of cache occupancy ((Ratio/Tick))
system.cpu.icache.tags.avgOccs::total        0.731889                       # Average percentage of cache occupancy ((Ratio/Tick))
system.cpu.icache.tags.occupanciesTaskId::1024          386                       # Occupied blocks per task id (Count)
system.cpu.icache.tags.ageTaskId_1024::3          386                       # Occupied blocks per task id, per block age (Count)
system.cpu.icache.tags.ratioOccsTaskId::1024     0.753906                       # Ratio of occupied blocks and all blocks, per task id (Ratio)
system.cpu.icache.tags.tagAccesses            7464947                       # Number of tag accesses (Count)
system.cpu.icache.tags.dataAccesses           7464947                       # Number of data accesses (Count)
system.cpu.icache.tags.power_state.pwrStateResidencyTicks::UNDEFINED   3781750500                       # Cumulative time (in ticks) in various power states (Tick)
system.cpu.interrupts.clk_domain.clock           8000                       # Clock period in ticks (Tick)
system.cpu.itb_walker_cache.blockedCycles::no_mshrs            0                       # number of cycles access was blocked (Cycle)
system.cpu.itb_walker_cache.blockedCycles::no_targets            0                       # number of cycles access was blocked (Cycle)
system.cpu.itb_walker_cache.blockedCauses::no_mshrs            0                       # number of times access was blocked (Count)
system.cpu.itb_walker_cache.blockedCauses::no_targets            0                       # number of times access was blocked (Count)
system.cpu.itb_walker_cache.avgBlocked::no_mshrs          nan                       # average number of cycles each access was blocked ((Cycle/Count))
system.cpu.itb_walker_cache.avgBlocked::no_targets          nan                       # average number of cycles each access was blocked ((Cycle/Count))
system.cpu.itb_walker_cache.replacements            0                       # number of replacements (Count)
system.cpu.itb_walker_cache.power_state.pwrStateResidencyTicks::UNDEFINED   3781750500                       # Cumulative time (in ticks) in various power states (Tick)
system.cpu.itb_walker_cache.tags.tagsInUse            0                       # Average ticks per tags in use ((Tick/Count))
system.cpu.itb_walker_cache.tags.totalRefs            0                       # Total number of references to valid blocks. (Count)
system.cpu.itb_walker_cache.tags.sampledRefs            0                       # Sample count of references to valid blocks. (Count)
system.cpu.itb_walker_cache.tags.avgRefs          nan                       # Average number of references to valid blocks. ((Count/Count))
system.cpu.itb_walker_cache.tags.warmupTick            0                       # The tick when the warmup percentage was hit. (Tick)
system.cpu.itb_walker_cache.tags.tagAccesses            0                       # Number of tag accesses (Count)
system.cpu.itb_walker_cache.tags.dataAccesses            0                       # Number of data accesses (Count)
system.cpu.itb_walker_cache.tags.power_state.pwrStateResidencyTicks::UNDEFINED   3781750500                       # Cumulative time (in ticks) in various power states (Tick)
system.cpu.lsq0.forwLoads                      722749                       # Number of loads that had data forwarded from stores (Count)
system.cpu.lsq0.squashedLoads                  737957                       # Number of loads squashed (Count)
system.cpu.lsq0.ignoredResponses                   19                       # Number of memory responses ignored because the instruction is squashed (Count)
system.cpu.lsq0.memOrderViolation                 308                       # Number of memory ordering violations (Count)
system.cpu.lsq0.squashedStores                 250006                       # Number of stores squashed (Count)
system.cpu.lsq0.rescheduledLoads                    0                       # Number of loads that were rescheduled (Count)
system.cpu.lsq0.blockedByCache                     14                       # Number of times an access to memory failed due to the cache being blocked (Count)
system.cpu.lsq0.loadToUse::samples            3485730                       # Distribution of cycle latency between the first time a load is issued and its completion (Unspecified)
system.cpu.lsq0.loadToUse::mean              3.220466                       # Distribution of cycle latency between the first time a load is issued and its completion (Unspecified)
system.cpu.lsq0.loadToUse::stdev             1.799253                       # Distribution of cycle latency between the first time a load is issued and its completion (Unspecified)
system.cpu.lsq0.loadToUse::0-9                3474041     99.66%     99.66% # Distribution of cycle latency between the first time a load is issued and its completion (Unspecified)
system.cpu.lsq0.loadToUse::10-19                 6002      0.17%     99.84% # Distribution of cycle latency between the first time a load is issued and its completion (Unspecified)
system.cpu.lsq0.loadToUse::20-29                 5462      0.16%     99.99% # Distribution of cycle latency between the first time a load is issued and its completion (Unspecified)
system.cpu.lsq0.loadToUse::30-39                    9      0.00%     99.99% # Distribution of cycle latency between the first time a load is issued and its completion (Unspecified)
system.cpu.lsq0.loadToUse::40-49                    1      0.00%     99.99% # Distribution of cycle latency between the first time a load is issued and its completion (Unspecified)
system.cpu.lsq0.loadToUse::50-59                    2      0.00%     99.99% # Distribution of cycle latency between the first time a load is issued and its completion (Unspecified)
system.cpu.lsq0.loadToUse::60-69                    3      0.00%     99.99% # Distribution of cycle latency between the first time a load is issued and its completion (Unspecified)
system.cpu.lsq0.loadToUse::80-89                    1      0.00%     99.99% # Distribution of cycle latency between the first time a load is issued and its completion (Unspecified)
system.cpu.lsq0.loadToUse::100-109                  1      0.00%     99.99% # Distribution of cycle latency between the first time a load is issued and its completion (Unspecified)
[...]
system.mem_ctrls.dram.perBankWrBursts::13            0                       # Per bank write bursts (Count)
system.mem_ctrls.dram.perBankWrBursts::14            0                       # Per bank write bursts (Count)
system.mem_ctrls.dram.perBankWrBursts::15            0                       # Per bank write bursts (Count)
system.mem_ctrls.dram.totQLat                22653750                       # Total ticks spent queuing (Tick)
system.mem_ctrls.dram.totBusLat              16290000                       # Total ticks spent in databus transfers (Tick)
system.mem_ctrls.dram.totMemAccLat           83741250                       # Total ticks spent from burst creation until serviced by the DRAM (Tick)
system.mem_ctrls.dram.avgQLat                 6953.27                       # Average queueing delay per DRAM burst ((Tick/Count))
system.mem_ctrls.dram.avgBusLat               5000.00                       # Average bus latency per DRAM burst ((Tick/Count))
system.mem_ctrls.dram.avgMemAccLat           25703.27                       # Average memory access latency per DRAM burst ((Tick/Count))
system.mem_ctrls.dram.readRowHits                2577                       # Number of row buffer hits during reads (Count)
system.mem_ctrls.dram.writeRowHits                  0                       # Number of row buffer hits during writes (Count)
system.mem_ctrls.dram.readRowHitRate            79.10                       # Row buffer hit rate for reads (Ratio)
system.mem_ctrls.dram.writeRowHitRate             nan                       # Row buffer hit rate for writes (Ratio)
system.mem_ctrls.dram.bytesPerActivate::samples          680                       # Bytes accessed per row activation (Byte)
system.mem_ctrls.dram.bytesPerActivate::mean   306.447059                       # Bytes accessed per row activation (Byte)
system.mem_ctrls.dram.bytesPerActivate::gmean   236.686283                       # Bytes accessed per row activation (Byte)
system.mem_ctrls.dram.bytesPerActivate::stdev   260.270778                       # Bytes accessed per row activation (Byte)
system.mem_ctrls.dram.bytesPerActivate::0-127           67      9.85%      9.85% # Bytes accessed per row activation (Byte)
system.mem_ctrls.dram.bytesPerActivate::128-255          283     41.62%     51.47% # Bytes accessed per row activation (Byte)
system.mem_ctrls.dram.bytesPerActivate::256-383          196     28.82%     80.29% # Bytes accessed per row activation (Byte)
system.mem_ctrls.dram.bytesPerActivate::384-511           41      6.03%     86.32% # Bytes accessed per row activation (Byte)
system.mem_ctrls.dram.bytesPerActivate::512-639           13      1.91%     88.24% # Bytes accessed per row activation (Byte)
system.mem_ctrls.dram.bytesPerActivate::640-767            6      0.88%     89.12% # Bytes accessed per row activation (Byte)
system.mem_ctrls.dram.bytesPerActivate::768-895            9      1.32%     90.44% # Bytes accessed per row activation (Byte)
system.mem_ctrls.dram.bytesPerActivate::896-1023            4      0.59%     91.03% # Bytes accessed per row activation (Byte)
system.mem_ctrls.dram.bytesPerActivate::1024-1151           61      8.97%    100.00% # Bytes accessed per row activation (Byte)
system.mem_ctrls.dram.bytesPerActivate::total          680                       # Bytes accessed per row activation (Byte)
system.mem_ctrls.dram.bytesRead                208512                       # Total number of bytes read from DRAM (Byte)
system.mem_ctrls.dram.bytesWritten                  0                       # Total number of bytes written to DRAM (Byte)
system.mem_ctrls.dram.avgRdBW               55.136371                       # Average DRAM read bandwidth in MiBytes/s ((Byte/Second))
system.mem_ctrls.dram.avgWrBW                       0                       # Average DRAM write bandwidth in MiBytes/s ((Byte/Second))
system.mem_ctrls.dram.peakBW                 12800.00                       # Theoretical peak bandwidth in MiByte/s ((Byte/Second))
system.mem_ctrls.dram.busUtil                    0.43                       # Data bus utilization in percentage (Ratio)
system.mem_ctrls.dram.busUtilRead                0.43                       # Data bus utilization in percentage for reads (Ratio)
system.mem_ctrls.dram.busUtilWrite               0.00                       # Data bus utilization in percentage for writes (Ratio)
system.mem_ctrls.dram.pageHitRate               79.10                       # Row buffer hit rate, read and write combined (Ratio)
system.mem_ctrls.dram.power_state.pwrStateResidencyTicks::UNDEFINED   3781750500                       # Cumulative time (in ticks) in various power states (Tick)
system.mem_ctrls.dram.rank0.actEnergy         2741760                       # Energy for activate commands per rank (pJ) (Joule)
system.mem_ctrls.dram.rank0.preEnergy         1457280                       # Energy for precharge commands per rank (pJ) (Joule)
system.mem_ctrls.dram.rank0.readEnergy       13066200                       # Energy for read commands per rank (pJ) (Joule)
system.mem_ctrls.dram.rank0.writeEnergy             0                       # Energy for write commands per rank (pJ) (Joule)
system.mem_ctrls.dram.rank0.refreshEnergy 298100400.000000                       # Energy for refresh commands per rank (pJ) (Joule)
system.mem_ctrls.dram.rank0.actBackEnergy    771088020                       # Energy for active background per rank (pJ) (Joule)
system.mem_ctrls.dram.rank0.preBackEnergy    802855200                       # Energy for precharge background per rank (pJ) (Joule)
system.mem_ctrls.dram.rank0.actPowerDownEnergy            0                       # Energy for active power-down per rank (pJ) (Joule)
system.mem_ctrls.dram.rank0.prePowerDownEnergy            0                       # Energy for precharge power-down per rank (pJ) (Joule)
system.mem_ctrls.dram.rank0.selfRefreshEnergy            0                       # Energy for self refresh per rank (pJ) (Joule)
system.mem_ctrls.dram.rank0.totalEnergy    1889308860                       # Total energy per rank (pJ) (Joule)
system.mem_ctrls.dram.rank0.averagePower   499.585803                       # Core power per rank (mW) (Watt)
system.mem_ctrls.dram.rank0.totalIdleTime            0                       # Total Idle time Per DRAM Rank (Tick)
system.mem_ctrls.dram.rank0.pwrStateTime::IDLE   2080328750                       # Time in different power states (Tick)
system.mem_ctrls.dram.rank0.pwrStateTime::REF    126100000                       # Time in different power states (Tick)
system.mem_ctrls.dram.rank0.pwrStateTime::SREF            0                       # Time in different power states (Tick)
system.mem_ctrls.dram.rank0.pwrStateTime::PRE_PDN            0                       # Time in different power states (Tick)
system.mem_ctrls.dram.rank0.pwrStateTime::ACT   1575321750                       # Time in different power states (Tick)
system.mem_ctrls.dram.rank0.pwrStateTime::ACT_PDN            0                       # Time in different power states (Tick)
system.mem_ctrls.dram.rank1.actEnergy         2120580                       # Energy for activate commands per rank (pJ) (Joule)
system.mem_ctrls.dram.rank1.preEnergy         1123320                       # Energy for precharge commands per rank (pJ) (Joule)
system.mem_ctrls.dram.rank1.readEnergy       10195920                       # Energy for read commands per rank (pJ) (Joule)
system.mem_ctrls.dram.rank1.writeEnergy             0                       # Energy for write commands per rank (pJ) (Joule)
system.mem_ctrls.dram.rank1.refreshEnergy 298100400.000000                       # Energy for refresh commands per rank (pJ) (Joule)
system.mem_ctrls.dram.rank1.actBackEnergy    738256590                       # Energy for active background per rank (pJ) (Joule)
system.mem_ctrls.dram.rank1.preBackEnergy    830502720                       # Energy for precharge background per rank (pJ) (Joule)
system.mem_ctrls.dram.rank1.actPowerDownEnergy            0                       # Energy for active power-down per rank (pJ) (Joule)
system.mem_ctrls.dram.rank1.prePowerDownEnergy            0                       # Energy for precharge power-down per rank (pJ) (Joule)
system.mem_ctrls.dram.rank1.selfRefreshEnergy            0                       # Energy for self refresh per rank (pJ) (Joule)
system.mem_ctrls.dram.rank1.totalEnergy    1880299530                       # Total energy per rank (pJ) (Joule)
system.mem_ctrls.dram.rank1.averagePower   497.203486                       # Core power per rank (mW) (Watt)
system.mem_ctrls.dram.rank1.totalIdleTime            0                       # Total Idle time Per DRAM Rank (Tick)
system.mem_ctrls.dram.rank1.pwrStateTime::IDLE   2152572000                       # Time in different power states (Tick)
system.mem_ctrls.dram.rank1.pwrStateTime::REF    126100000                       # Time in different power states (Tick)
system.mem_ctrls.dram.rank1.pwrStateTime::SREF            0                       # Time in different power states (Tick)
system.mem_ctrls.dram.rank1.pwrStateTime::PRE_PDN            0                       # Time in different power states (Tick)
system.mem_ctrls.dram.rank1.pwrStateTime::ACT   1503078500                       # Time in different power states (Tick)
system.mem_ctrls.dram.rank1.pwrStateTime::ACT_PDN            0                       # Time in different power states (Tick)
system.mem_ctrls.power_state.pwrStateResidencyTicks::UNDEFINED   3781750500                       # Cumulative time (in ticks) in various power states (Tick)
system.membus.transDist::ReadResp                2130                       # Transaction distribution (Count)
system.membus.transDist::CleanEvict                 3                       # Transaction distribution (Count)
system.membus.transDist::ReadExReq               1128                       # Transaction distribution (Count)
system.membus.transDist::ReadExResp              1128                       # Transaction distribution (Count)
system.membus.transDist::ReadSharedReq           2130                       # Transaction distribution (Count)
system.membus.pktCount_system.l2.mem_side_port::system.mem_ctrls.port         6519                       # Packet count per connected requestor and responder (Count)
system.membus.pktCount_system.l2.mem_side_port::total         6519                       # Packet count per connected requestor and responder (Count)
system.membus.pktCount::total                    6519                       # Packet count per connected requestor and responder (Count)
system.membus.pktSize_system.l2.mem_side_port::system.mem_ctrls.port       208512                       # Cumulative packet size per connected requestor and responder (Byte)
system.membus.pktSize_system.l2.mem_side_port::total       208512                       # Cumulative packet size per connected requestor and responder (Byte)
system.membus.pktSize::total                   208512                       # Cumulative packet size per connected requestor and responder (Byte)
system.membus.snoops                                0                       # Total snoops (Count)
system.membus.snoopTraffic                          0                       # Total snoop traffic (Byte)
system.membus.snoopFanout::samples               3258                       # Request fanout histogram (Count)
system.membus.snoopFanout::mean                     0                       # Request fanout histogram (Count)
system.membus.snoopFanout::stdev                    0                       # Request fanout histogram (Count)
system.membus.snoopFanout::underflows               0      0.00%      0.00% # Request fanout histogram (Count)
system.membus.snoopFanout::0                     3258    100.00%    100.00% # Request fanout histogram (Count)
system.membus.snoopFanout::1                        0      0.00%    100.00% # Request fanout histogram (Count)
system.membus.snoopFanout::overflows                0      0.00%    100.00% # Request fanout histogram (Count)
system.membus.snoopFanout::min_value                0                       # Request fanout histogram (Count)
system.membus.snoopFanout::max_value                0                       # Request fanout histogram (Count)
system.membus.snoopFanout::total                 3258                       # Request fanout histogram (Count)
system.membus.power_state.pwrStateResidencyTicks::UNDEFINED   3781750500                       # Cumulative time (in ticks) in various power states (Tick)
system.membus.reqLayer2.occupancy             4194500                       # Layer occupancy (ticks) (Tick)
system.membus.reqLayer2.utilization               0.0                       # Layer utilization (Ratio)
system.membus.respLayer1.occupancy           17282250                       # Layer occupancy (ticks) (Tick)
system.membus.respLayer1.utilization              0.0                       # Layer utilization (Ratio)
system.membus.snoop_filter.totRequests           3261                       # Total number of requests made to the snoop filter. (Count)
system.membus.snoop_filter.hitSingleRequests            3                       # Number of requests hitting in the snoop filter with a single holder of the requested data. (Count)
system.membus.snoop_filter.hitMultiRequests            0                       # Number of requests hitting in the snoop filter with multiple (>1) holders of the requested data. (Count)
system.membus.snoop_filter.totSnoops                0                       # Total number of snoops made to the snoop filter. (Count)
system.membus.snoop_filter.hitSingleSnoops            0                       # Number of snoops hitting in the snoop filter with a single holder of the requested data. (Count)
system.membus.snoop_filter.hitMultiSnoops            0                       # Number of snoops hitting in the snoop filter with multiple (>1) holders of the requested data. (Count)
system.tol2bus.transDist::ReadResp               3196                       # Transaction distribution (Count)
system.tol2bus.transDist::WritebackDirty         1194                       # Transaction distribution (Count)
system.tol2bus.transDist::WritebackClean           55                       # Transaction distribution (Count)
system.tol2bus.transDist::CleanEvict             2210                       # Transaction distribution (Count)
system.tol2bus.transDist::UpgradeReq                2                       # Transaction distribution (Count)
system.tol2bus.transDist::UpgradeResp               2                       # Transaction distribution (Count)
system.tol2bus.transDist::ReadExReq              1131                       # Transaction distribution (Count)
system.tol2bus.transDist::ReadExResp             1131                       # Transaction distribution (Count)
system.tol2bus.transDist::ReadCleanReq            443                       # Transaction distribution (Count)
system.tol2bus.transDist::ReadSharedReq          2753                       # Transaction distribution (Count)
system.tol2bus.pktCount_system.cpu.icache.mem_side_port::system.l2.cpu_side_port          938                       # Packet count per connected requestor and responder (Count)
system.tol2bus.pktCount_system.cpu.dcache.mem_side_port::system.l2.cpu_side_port        11144                       # Packet count per connected requestor and responder (Count)
system.tol2bus.pktCount::total                  12082                       # Packet count per connected requestor and responder (Count)
system.tol2bus.pktSize_system.cpu.icache.mem_side_port::system.l2.cpu_side_port        31680                       # Cumulative packet size per connected requestor and responder (Byte)
system.tol2bus.pktSize_system.cpu.dcache.mem_side_port::system.l2.cpu_side_port       324992                       # Cumulative packet size per connected requestor and responder (Byte)
system.tol2bus.pktSize::total                  356672                       # Cumulative packet size per connected requestor and responder (Byte)
system.tol2bus.snoops                              35                       # Total snoops (Count)
system.tol2bus.snoopTraffic                       192                       # Total snoop traffic (Byte)
system.tol2bus.snoopFanout::samples              4361                       # Request fanout histogram (Count)
system.tol2bus.snoopFanout::mean             0.008714                       # Request fanout histogram (Count)
system.tol2bus.snoopFanout::stdev            0.092950                       # Request fanout histogram (Count)
system.tol2bus.snoopFanout::underflows              0      0.00%      0.00% # Request fanout histogram (Count)
system.tol2bus.snoopFanout::0                    4323     99.13%     99.13% # Request fanout histogram (Count)
system.tol2bus.snoopFanout::1                      38      0.87%    100.00% # Request fanout histogram (Count)
system.tol2bus.snoopFanout::2                       0      0.00%    100.00% # Request fanout histogram (Count)
system.tol2bus.snoopFanout::3                       0      0.00%    100.00% # Request fanout histogram (Count)
system.tol2bus.snoopFanout::4                       0      0.00%    100.00% # Request fanout histogram (Count)
system.tol2bus.snoopFanout::overflows               0      0.00%    100.00% # Request fanout histogram (Count)
system.tol2bus.snoopFanout::min_value               0                       # Request fanout histogram (Count)
system.tol2bus.snoopFanout::max_value               1                       # Request fanout histogram (Count)
system.tol2bus.snoopFanout::total                4361                       # Request fanout histogram (Count)
system.tol2bus.power_state.pwrStateResidencyTicks::UNDEFINED   3781750500                       # Cumulative time (in ticks) in various power states (Tick)
system.tol2bus.reqLayer0.occupancy            5127000                       # Layer occupancy (ticks) (Tick)
system.tol2bus.reqLayer0.utilization              0.0                       # Layer utilization (Ratio)
system.tol2bus.respLayer0.occupancy            664500                       # Layer occupancy (ticks) (Tick)
system.tol2bus.respLayer0.utilization             0.0                       # Layer utilization (Ratio)
system.tol2bus.respLayer1.occupancy           5827000                       # Layer occupancy (ticks) (Tick)
system.tol2bus.respLayer1.utilization             0.0                       # Layer utilization (Ratio)
system.tol2bus.snoop_filter.totRequests          7756                       # Total number of requests made to the snoop filter. (Count)
system.tol2bus.snoop_filter.hitSingleRequests         3429                       # Number of requests hitting in the snoop filter with a single holder of the requested data. (Count)
system.tol2bus.snoop_filter.hitMultiRequests            7                       # Number of requests hitting in the snoop filter with multiple (>1) holders of the requested data. (Count)
system.tol2bus.snoop_filter.totSnoops              29                       # Total number of snoops made to the snoop filter. (Count)
system.tol2bus.snoop_filter.hitSingleSnoops           29                       # Number of snoops hitting in the snoop filter with a single holder of the requested data. (Count)
system.tol2bus.snoop_filter.hitMultiSnoops            0                       # Number of snoops hitting in the snoop filter with multiple (>1) holders of the requested data. (Count)
system.voltage_domain.voltage                       1                       # Voltage in Volts (Volt)
system.workload.inst.arm                            0                       # number of arm instructions executed (Count)
system.workload.inst.quiesce                        0                       # number of quiesce instructions executed (Count)

---------- End Simulation Statistics   ----------
