
---------- Begin Simulation Statistics ----------
simSeconds                                   0.002045                       # Number of seconds simulated (Second)
simTicks                                   2044960500                       # Number of ticks simulated (Tick)
finalTick                                  2044960500                       # Number of ticks from beginning of simulation (restored from checkpoints and never reset) (Tick)
simFreq                                  1000000000000                       # The number of ticks per simulated second ((Tick/Second))
hostSeconds                                     38.00                       # Real time elapsed on the host (Second)
hostTickRate                                 53813782                       # The number of ticks simulated per host second (ticks/s) ((Tick/Second))
hostMemory                                    2244592                       # Number of bytes of host memory used (Byte)
simInsts                                      5989129                       # Number of instructions simulated (Count)
simOps                                       11493089                       # Number of ops (including micro ops) simulated (Count)
hostInstRate                                   157605                       # Simulator instruction rate (inst/s) ((Count/Second))
hostOpRate                                     302443                       # Simulator op (including micro ops) rate (op/s) ((Count/Second))
system.clk_domain.clock                          1000                       # Clock period in ticks (Tick)
system.cpu.numCycles                          4089922                       # Number of cpu cycles simulated (Cycle)
system.cpu.numWorkItemsStarted                      0                       # Number of work items this cpu started (Count)
system.cpu.numWorkItemsCompleted                    0                       # Number of work items this cpu completed (Count)
system.cpu.instsAdded                        13281079                       # Number of instructions added to the IQ (excludes non-spec) (Count)
system.cpu.nonSpecInstsAdded                    32519                       # Number of non-speculative instructions added to the IQ (Count)
system.cpu.instsIssued                       12621362                       # Number of instructions issued (Count)
system.cpu.squashedInstsIssued                  10477                       # Number of squashed instructions issued (Count)
system.cpu.squashedInstsExamined              1820487                       # Number of squashed instructions iterated over during squash; mainly for profiling (Count)
system.cpu.squashedOperandsExamined           2737597                       # Number of squashed operands that are examined and possibly removed from graph (Count)
system.cpu.squashedNonSpecRemoved               24738                       # Number of squashed non-spec instructions that were removed (Count)
system.cpu.numIssuedDist::samples             3949804                       # Number of insts issued each cycle (Count)
system.cpu.numIssuedDist::mean               3.195440                       # Number of insts issued each cycle (Count)
system.cpu.numIssuedDist::stdev              2.447249                       # Number of insts issued each cycle (Count)
system.cpu.numIssuedDist::underflows                0      0.00%      0.00% # Number of insts issued each cycle (Count)
system.cpu.numIssuedDist::0                    898608     22.75%     22.75% # Number of insts issued each cycle (Count)
system.cpu.numIssuedDist::1                    308967      7.82%     30.57% # Number of insts issued each cycle (Count)
system.cpu.numIssuedDist::2                    423010     10.71%     41.28% # Number of insts issued each cycle (Count)
system.cpu.numIssuedDist::3                    533518     13.51%     54.79% # Number of insts issued each cycle (Count)
system.cpu.numIssuedDist::4                    487112     12.33%     67.12% # Number of insts issued each cycle (Count)
system.cpu.numIssuedDist::5                    374636      9.48%     76.61% # Number of insts issued each cycle (Count)
system.cpu.numIssuedDist::6                    551199     13.96%     90.56% # Number of insts issued each cycle (Count)
system.cpu.numIssuedDist::7                    245033      6.20%     96.77% # Number of insts issued each cycle (Count)
system.cpu.numIssuedDist::8                    127721      3.23%    100.00% # Number of insts issued each cycle (Count)
system.cpu.numIssuedDist::overflows                 0      0.00%    100.00% # Number of insts issued each cycle (Count)
system.cpu.numIssuedDist::min_value                 0                       # Number of insts issued each cycle (Count)
system.cpu.numIssuedDist::max_value                 8                       # Number of insts issued each cycle (Count)
system.cpu.numIssuedDist::total               3949804                       # Number of insts issued each cycle (Count)
system.cpu.statFuBusy::No_OpClass                   0      0.00%      0.00% # attempts to use FU when none available (Count)
system.cpu.statFuBusy::IntAlu                  153235     81.91%     81.91% # attempts to use FU when none available (Count)
system.cpu.statFuBusy::IntMult                      0      0.00%     81.91% # attempts to use FU when none available (Count)
system.cpu.statFuBusy::IntDiv                       0      0.00%     81.91% # attempts to use FU when none available (Count)
system.cpu.statFuBusy::FloatAdd                     0      0.00%     81.91% # attempts to use FU when none available (Count)
system.cpu.statFuBusy::FloatCmp                     0      0.00%     81.91% # attempts to use FU when none available (Count)
system.cpu.statFuBusy::FloatCvt                     0      0.00%     81.91% # attempts to use FU when none available (Count)
system.cpu.statFuBusy::FloatMult                    0      0.00%     81.91% # attempts to use FU when none available (Count)
system.cpu.statFuBusy::FloatMultAcc                 0      0.00%     81.91% # attempts to use FU when none available (Count)
system.cpu.statFuBusy::FloatDiv                     0      0.00%     81.91% # attempts to use FU when none available (Count)
system.cpu.statFuBusy::FloatMisc                    0      0.00%     81.91% # attempts to use FU when none available (Count)
system.cpu.statFuBusy::FloatSqrt                    0      0.00%     81.91% # attempts to use FU when none available (Count)
system.cpu.statFuBusy::SimdAdd                      0      0.00%     81.91% # attempts to use FU when none available (Count)
system.cpu.statFuBusy::SimdAddAcc                   0      0.00%     81.91% # attempts to use FU when none available (Count)
system.cpu.statFuBusy::SimdAlu                      0      0.00%     81.91% # attempts to use FU when none available (Count)
system.cpu.statFuBusy::SimdCmp                      0      0.00%     81.91% # attempts to use FU when none available (Count)
system.cpu.statFuBusy::SimdCvt                      0      0.00%     81.91% # attempts to use FU when none available (Count)
system.cpu.statFuBusy::SimdMisc                     0      0.00%     81.91% # attempts to use FU when none available (Count)
system.cpu.statFuBusy::SimdMult                     0      0.00%     81.91% # attempts to use FU when none available (Count)
system.cpu.statFuBusy::SimdMultAcc                  0      0.00%     81.91% # attempts to use FU when none available (Count)
system.cpu.statFuBusy::SimdShift                    0      0.00%     81.91% # attempts to use FU when none available (Count)
system.cpu.statFuBusy::SimdShiftAcc                 0      0.00%     81.91% # attempts to use FU when none available (Count)
system.cpu.statFuBusy::SimdDiv                      0      0.00%     81.91% # attempts to use FU when none available (Count)
system.cpu.statFuBusy::SimdSqrt                     0      0.00%     81.91% # attempts to use FU when none available (Count)
system.cpu.statFuBusy::SimdFloatAdd                 0      0.00%     81.91% # attempts to use FU when none available (Count)
system.cpu.statFuBusy::SimdFloatAlu                 0      0.00%     81.91% # attempts to use FU when none available (Count)
system.cpu.statFuBusy::SimdFloatCmp                 0      0.00%     81.91% # attempts to use FU when none available (Count)
system.cpu.statFuBusy::SimdFloatCvt                 0      0.00%     81.91% # attempts to use FU when none available (Count)
system.cpu.statFuBusy::SimdFloatDiv                 0      0.00%     81.91% # attempts to use FU when none available (Count)
system.cpu.statFuBusy::SimdFloatMisc                0      0.00%     81.91% # attempts to use FU when none available (Count)
system.cpu.statFuBusy::SimdFloatMult                0      0.00%     81.91% # attempts to use FU when none available (Count)
system.cpu.statFuBusy::SimdFloatMultAcc             0      0.00%     81.91% # attempts to use FU when none available (Count)
system.cpu.statFuBusy::SimdFloatSqrt                0      0.00%     81.91% # attempts to use FU when none available (Count)
system.cpu.statFuBusy::SimdReduceAdd                0      0.00%     81.91% # attempts to use FU when none available (Count)
system.cpu.statFuBusy::SimdReduceAlu                0      0.00%     81.91% # attempts to use FU when none available (Count)
system.cpu.statFuBusy::SimdReduceCmp                0      0.00%     81.91% # attempts to use FU when none available (Count)
system.cpu.statFuBusy::SimdFloatReduceAdd            0      0.00%     81.91% # attempts to use FU when none available (Count)
system.cpu.statFuBusy::SimdFloatReduceCmp            0      0.00%     81.91% # attempts to use FU when none available (Count)
system.cpu.statFuBusy::SimdAes                      0      0.00%     81.91% # attempts to use FU when none available (Count)
system.cpu.statFuBusy::SimdAesMix                   0      0.00%     81.91% # attempts to use FU when none available (Count)
system.cpu.statFuBusy::SimdSha1Hash                 0      0.00%     81.91% # attempts to use FU when none available (Count)
system.cpu.statFuBusy::SimdSha1Hash2                0      0.00%     81.91% # attempts to use FU when none available (Count)
system.cpu.statFuBusy::SimdSha256Hash               0      0.00%     81.91% # attempts to use FU when none available (Count)
system.cpu.statFuBusy::SimdSha256Hash2              0      0.00%     81.91% # attempts to use FU when none available (Count)
system.cpu.statFuBusy::SimdShaSigma2                0      0.00%     81.91% # attempts to use FU when none available (Count)
system.cpu.statFuBusy::SimdShaSigma3                0      0.00%     81.91% # attempts to use FU when none available (Count)
system.cpu.statFuBusy::SimdPredAlu                  0      0.00%     81.91% # attempts to use FU when none available (Count)
system.cpu.statFuBusy::MemRead                  27152     14.51%     96.42% # attempts to use FU when none available (Count)
system.cpu.statFuBusy::MemWrite                  6691      3.58%    100.00% # attempts to use FU when none available (Count)
system.cpu.statFuBusy::FloatMemRead                 0      0.00%    100.00% # attempts to use FU when none available (Count)
system.cpu.statFuBusy::FloatMemWrite                0      0.00%    100.00% # attempts to use FU when none available (Count)
system.cpu.statFuBusy::IprAccess                    0      0.00%    100.00% # attempts to use FU when none available (Count)
system.cpu.statFuBusy::InstPrefetch                 0      0.00%    100.00% # attempts to use FU when none available (Count)
system.cpu.statIssuedInstType_0::No_OpClass         6703      0.05%      0.05% # Number of instructions issued per FU type, per thread (Count)
system.cpu.statIssuedInstType_0::IntAlu       9717236     76.99%     77.04% # Number of instructions issued per FU type, per thread (Count)
system.cpu.statIssuedInstType_0::IntMult          231      0.00%     77.05% # Number of instructions issued per FU type, per thread (Count)
system.cpu.statIssuedInstType_0::IntDiv          1177      0.01%     77.05% # Number of instructions issued per FU type, per thread (Count)
system.cpu.statIssuedInstType_0::FloatAdd           63      0.00%     77.06% # Number of instructions issued per FU type, per thread (Count)
system.cpu.statIssuedInstType_0::FloatCmp          100      0.00%     77.06% # Number of instructions issued per FU type, per thread (Count)
system.cpu.statIssuedInstType_0::FloatCvt            0      0.00%     77.06% # Number of instructions issued per FU type, per thread (Count)
system.cpu.statIssuedInstType_0::FloatMult            0      0.00%     77.06% # Number of instructions issued per FU type, per thread (Count)
system.cpu.statIssuedInstType_0::FloatMultAcc            0      0.00%     77.06% # Number of instructions issued per FU type, per thread (Count)
system.cpu.statIssuedInstType_0::FloatDiv            0      0.00%     77.06% # Number of instructions issued per FU type, per thread (Count)
system.cpu.statIssuedInstType_0::FloatMisc            0      0.00%     77.06% # Number of instructions issued per FU type, per thread (Count)
system.cpu.statIssuedInstType_0::FloatSqrt            0      0.00%     77.06% # Number of instructions issued per FU type, per thread (Count)
system.cpu.statIssuedInstType_0::SimdAdd            0      0.00%     77.06% # Number of instructions issued per FU type, per thread (Count)
system.cpu.statIssuedInstType_0::SimdAddAcc            0      0.00%     77.06% # Number of instructions issued per FU type, per thread (Count)
system.cpu.statIssuedInstType_0::SimdAlu            0      0.00%     77.06% # Number of instructions issued per FU type, per thread (Count)
system.cpu.statIssuedInstType_0::SimdCmp            0      0.00%     77.06% # Number of instructions issued per FU type, per thread (Count)
system.cpu.statIssuedInstType_0::SimdCvt            0      0.00%     77.06% # Number of instructions issued per FU type, per thread (Count)
system.cpu.statIssuedInstType_0::SimdMisc            0      0.00%     77.06% # Number of instructions issued per FU type, per thread (Count)
system.cpu.statIssuedInstType_0::SimdMult            0      0.00%     77.06% # Number of instructions issued per FU type, per thread (Count)
system.cpu.statIssuedInstType_0::SimdMultAcc            0      0.00%     77.06% # Number of instructions issued per FU type, per thread (Count)
system.cpu.statIssuedInstType_0::SimdShift            0      0.00%     77.06% # Number of instructions issued per FU type, per thread (Count)
system.cpu.statIssuedInstType_0::SimdShiftAcc            0      0.00%     77.06% # Number of instructions issued per FU type, per thread (Count)
system.cpu.statIssuedInstType_0::SimdDiv            0      0.00%     77.06% # Number of instructions issued per FU type, per thread (Count)
system.cpu.statIssuedInstType_0::SimdSqrt            0      0.00%     77.06% # Number of instructions issued per FU type, per thread (Count)
system.cpu.statIssuedInstType_0::SimdFloatAdd            0      0.00%     77.06% # Number of instructions issued per FU type, per thread (Count)
system.cpu.statIssuedInstType_0::SimdFloatAlu            0      0.00%     77.06% # Number of instructions issued per FU type, per thread (Count)
system.cpu.statIssuedInstType_0::SimdFloatCmp            0      0.00%     77.06% # Number of instructions issued per FU type, per thread (Count)
system.cpu.statIssuedInstType_0::SimdFloatCvt            0      0.00%     77.06% # Number of instructions issued per FU type, per thread (Count)
system.cpu.statIssuedInstType_0::SimdFloatDiv            0      0.00%     77.06% # Number of instructions issued per FU type, per thread (Count)
system.cpu.statIssuedInstType_0::SimdFloatMisc            0      0.00%     77.06% # Number of instructions issued per FU type, per thread (Count)
system.cpu.statIssuedInstType_0::SimdFloatMult            0      0.00%     77.06% # Number of instructions issued per FU type, per thread (Count)
system.cpu.statIssuedInstType_0::SimdFloatMultAcc            0      0.00%     77.06% # Number of instructions issued per FU type, per thread (Count)
system.cpu.statIssuedInstType_0::SimdFloatSqrt            0      0.00%     77.06% # Number of instructions issued per FU type, per thread (Count)
system.cpu.statIssuedInstType_0::SimdReduceAdd            0      0.00%     77.06% # Number of instructions issued per FU type, per thread (Count)
system.cpu.statIssuedInstType_0::SimdReduceAlu            0      0.00%     77.06% # Number of instructions issued per FU type, per thread (Count)
system.cpu.statIssuedInstType_0::SimdReduceCmp            0      0.00%     77.06% # Number of instructions issued per FU type, per thread (Count)
system.cpu.statIssuedInstType_0::SimdFloatReduceAdd            0      0.00%     77.06% # Number of instructions issued per FU type, per thread (Count)
system.cpu.statIssuedInstType_0::SimdFloatReduceCmp            0      0.00%     77.06% # Number of instructions issued per FU type, per thread (Count)
system.cpu.statIssuedInstType_0::SimdAes            0      0.00%     77.06% # Number of instructions issued per FU type, per thread (Count)
system.cpu.statIssuedInstType_0::SimdAesMix            0      0.00%     77.06% # Number of instructions issued per FU type, per thread (Count)
system.cpu.statIssuedInstType_0::SimdSha1Hash            0      0.00%     77.06% # Number of instructions issued per FU type, per thread (Count)
system.cpu.statIssuedInstType_0::SimdSha1Hash2            0      0.00%     77.06% # Number of instructions issued per FU type, per thread (Count)
system.cpu.statIssuedInstType_0::SimdSha256Hash            0      0.00%     77.06% # Number of instructions issued per FU type, per thread (Count)
system.cpu.statIssuedInstType_0::SimdSha256Hash2            0      0.00%     77.06% # Number of instructions issued per FU type, per thread (Count)
system.cpu.statIssuedInstType_0::SimdShaSigma2            0      0.00%     77.06% # Number of instructions issued per FU type, per thread (Count)
system.cpu.statIssuedInstType_0::SimdShaSigma3            0      0.00%     77.06% # Number of instructions issued per FU type, per thread (Count)
system.cpu.statIssuedInstType_0::SimdPredAlu            0      0.00%     77.06% # Number of instructions issued per FU type, per thread (Count)
system.cpu.statIssuedInstType_0::MemRead      1839351     14.57%     91.63% # Number of instructions issued per FU type, per thread (Count)
system.cpu.statIssuedInstType_0::MemWrite      1055796      8.37%     99.99% # Number of instructions issued per FU type, per thread (Count)
system.cpu.statIssuedInstType_0::FloatMemRead          456      0.00%    100.00% # Number of instructions issued per FU type, per thread (Count)
system.cpu.statIssuedInstType_0::FloatMemWrite          249      0.00%    100.00% # Number of instructions issued per FU type, per thread (Count)
system.cpu.statIssuedInstType_0::IprAccess            0      0.00%    100.00% # Number of instructions issued per FU type, per thread (Count)
system.cpu.statIssuedInstType_0::InstPrefetch            0      0.00%    100.00% # Number of instructions issued per FU type, per thread (Count)
system.cpu.statIssuedInstType_0::total       12621362                       # Number of instructions issued per FU type, per thread (Count)
system.cpu.issueRate                         3.085966                       # Inst issue rate ((Count/Cycle))
system.cpu.fuBusy                              187078                       # FU busy when requested (Count)
system.cpu.fuBusyRate                        0.014822                       # FU busy rate (busy events/executed inst) ((Count/Count))
system.cpu.intInstQueueReads                 29386843                       # Number of integer instruction queue reads (Count)
system.cpu.intInstQueueWrites                15138447                       # Number of integer instruction queue writes (Count)
system.cpu.intInstQueueWakeupAccesses        12494733                       # Number of integer instruction queue wakeup accesses (Count)
system.cpu.fpInstQueueReads                      3240                       # Number of floating instruction queue reads (Count)
system.cpu.fpInstQueueWrites                     1813                       # Number of floating instruction queue writes (Count)
system.cpu.fpInstQueueWakeupAccesses             1543                       # Number of floating instruction queue wakeup accesses (Count)
system.cpu.vecInstQueueReads                        0                       # Number of vector instruction queue reads (Count)
system.cpu.vecInstQueueWrites                       0                       # Number of vector instruction queue writes (Count)
system.cpu.vecInstQueueWakeupAccesses               0                       # Number of vector instruction queue wakeup accesses (Count)
system.cpu.intAluAccesses                    12800117                       # Number of integer alu accesses (Count)
system.cpu.fpAluAccesses                         1620                       # Number of floating point alu accesses (Count)
system.cpu.vecAluAccesses                           0                       # Number of vector alu accesses (Count)
system.cpu.idleCycles                               0                       # Number of cycles IEW is idle (Cycle)
system.cpu.squashCycles                         40738                       # Number of cycles IEW is squashing (Cycle)
system.cpu.blockCycles                         262748                       # Number of cycles IEW is blocking (Cycle)
system.cpu.unblockCycles                        14344                       # Number of cycles IEW is unblocking (Cycle)
system.cpu.dispatchedInsts                   13313598                       # Number of instructions dispatched to IQ (Count)
system.cpu.dispSquashedInsts                     1796                       # Number of squashed instructions skipped by dispatch (Count)
system.cpu.dispLoadInsts                      1966708                       # Number of dispatched load instructions (Count)
system.cpu.dispStoreInsts                     1146931                       # Number of dispatched store instructions (Count)
system.cpu.dispNonSpecInsts                     11773                       # Number of dispatched non-speculative instructions (Count)
system.cpu.iqFullEvents                          5032                       # Number of times the IQ has become full, causing a stall (Count)
system.cpu.lsqFullEvents                         7103                       # Number of times the LSQ has become full, causing a stall (Count)
system.cpu.memOrderViolationEvents               6240                       # Number of memory order violations (Count)
system.cpu.predictedTakenIncorrect              16725                       # Number of branches that were predicted taken incorrectly (Count)
system.cpu.predictedNotTakenIncorrect           25221                       # Number of branches that were predicted not taken incorrectly (Count)
system.cpu.branchMispredicts                    41946                       # Number of branch mispredicts detected at execute (Count)
system.cpu.numInsts                          12537623                       # Number of executed instructions (Count)
system.cpu.numLoadInsts                       1821134                       # Number of load instructions executed (Count)
system.cpu.numSquashedInsts                     83739                       # Number of squashed instructions skipped in execute (Count)
system.cpu.numSwp                                   0                       # Number of swp insts executed (Count)
system.cpu.numNop                                   0                       # Number of nop insts executed (Count)
system.cpu.numRefs                            2865111                       # Number of memory reference insts executed (Count)
system.cpu.numBranches                        1398045                       # Number of branches executed (Count)
system.cpu.numStoreInsts                      1043977                       # Number of stores executed (Count)
system.cpu.numRate                           3.065492                       # Inst execution rate ((Count/Cycle))
system.cpu.instsToCommit                     12516375                       # Cumulative count of insts sent to commit (Count)
system.cpu.writebackCount                    12496276                       # Cumulative count of insts written-back (Count)
system.cpu.producerInst                       9503760                       # Number of instructions producing a value (Count)
system.cpu.consumerInst                      15949594                       # Number of instructions consuming a value (Count)
system.cpu.wbRate                            3.055382                       # Insts written-back per cycle ((Count/Cycle))
system.cpu.wbFanout                          0.595862                       # Average fanout of values written-back ((Count/Count))
system.cpu.timesIdled                            2457                       # Number of times that the entire CPU went into an idle state and unscheduled itself (Count)
system.cpu.idleCycles                          140118                       # Total number of cycles that the CPU has spent unscheduled due to idling (Cycle)
system.cpu.committedInsts                     5989129                       # Number of Instructions Simulated (Count)
system.cpu.committedOps                      11493089                       # Number of Ops (including micro ops) Simulated (Count)
system.cpu.cpi                               0.682891                       # CPI: Cycles Per Instruction ((Cycle/Count))
system.cpu.totalCpi                          0.682891                       # CPI: Total CPI of All Threads ((Cycle/Count))
system.cpu.ipc                               1.464363                       # IPC: Instructions Per Cycle ((Count/Cycle))
system.cpu.totalIpc                          1.464363                       # IPC: Total IPC of All Threads ((Count/Cycle))
system.cpu.intRegfileReads                   18336049                       # Number of integer regfile reads (Count)
system.cpu.intRegfileWrites                  10032252                       # Number of integer regfile writes (Count)
system.cpu.fpRegfileReads                        1973                       # Number of floating regfile reads (Count)
system.cpu.fpRegfileWrites                       1194                       # Number of floating regfile writes (Count)
system.cpu.ccRegfileReads                     6677453                       # number of cc regfile reads (Count)
system.cpu.ccRegfileWrites                    4170668                       # number of cc regfile writes (Count)
system.cpu.miscRegfileReads                   5580160                       # number of misc regfile reads (Count)
system.cpu.miscRegfileWrites                     1096                       # number of misc regfile writes (Count)
system.cpu.MemDepUnit__0.insertedLoads        1966708                       # Number of loads inserted to the mem dependence unit. (Count)
system.cpu.MemDepUnit__0.insertedStores       1146931                       # Number of stores inserted to the mem dependence unit. (Count)
system.cpu.MemDepUnit__0.conflictingLoads       441452                       # Number of conflicting loads. (Count)
system.cpu.MemDepUnit__0.conflictingStores       285328                       # Number of conflicting stores. (Count)
system.cpu.MemDepUnit__1.insertedLoads              0                       # Number of loads inserted to the mem dependence unit. (Count)
system.cpu.MemDepUnit__1.insertedStores             0                       # Number of stores inserted to the mem dependence unit. (Count)
system.cpu.MemDepUnit__1.conflictingLoads            0                       # Number of conflicting loads. (Count)
system.cpu.MemDepUnit__1.conflictingStores            0                       # Number of conflicting stores. (Count)
system.cpu.MemDepUnit__2.insertedLoads              0                       # Number of loads inserted to the mem dependence unit. (Count)
system.cpu.MemDepUnit__2.insertedStores             0                       # Number of stores inserted to the mem dependence unit. (Count)
system.cpu.MemDepUnit__2.conflictingLoads            0                       # Number of conflicting loads. (Count)
system.cpu.MemDepUnit__2.conflictingStores            0                       # Number of conflicting stores. (Count)
system.cpu.MemDepUnit__3.insertedLoads              0                       # Number of loads inserted to the mem dependence unit. (Count)
system.cpu.MemDepUnit__3.insertedStores             0                       # Number of stores inserted to the mem dependence unit. (Count)
system.cpu.MemDepUnit__3.conflictingLoads            0                       # Number of conflicting loads. (Count)
system.cpu.MemDepUnit__3.conflictingStores            0                       # Number of conflicting stores. (Count)
system.cpu.branchPred.lookups                 1632968                       # Number of BP lookups (Count)
system.cpu.branchPred.condPredicted           1270068                       # Number of conditional branches predicted (Count)
system.cpu.branchPred.condIncorrect             42381                       # Number of conditional branches incorrect (Count)
system.cpu.branchPred.BTBLookups               732810                       # Number of BTB lookups (Count)
system.cpu.branchPred.BTBHits                  722863                       # Number of BTB hits (Count)
system.cpu.branchPred.BTBHitRatio            0.986426                       # BTB Hit Ratio (Ratio)
system.cpu.branchPred.RASUsed                  115405                       # Number of times the RAS was used to get a target. (Count)
system.cpu.branchPred.RASIncorrect                101                       # Number of incorrect RAS predictions. (Count)
system.cpu.branchPred.indirectLookups           21030                       # Number of indirect predictor lookups. (Count)
system.cpu.branchPred.indirectHits              18870                       # Number of indirect target hits. (Count)
system.cpu.branchPred.indirectMisses             2160                       # Number of indirect misses. (Count)
system.cpu.branchPred.indirectMispredicted         3235                       # Number of mispredicted indirect branches. (Count)
system.cpu.branchPred.perceptron.lookups            0                       # Number of BP lookups (Count)
system.cpu.branchPred.perceptron.condPredicted            0                       # Number of conditional branches predicted (Count)
system.cpu.branchPred.perceptron.condIncorrect            0                       # Number of conditional branches incorrect (Count)
system.cpu.branchPred.perceptron.BTBLookups            0                       # Number of BTB lookups (Count)
system.cpu.branchPred.perceptron.BTBHits            0                       # Number of BTB hits (Count)
system.cpu.branchPred.perceptron.BTBHitRatio          nan                       # BTB Hit Ratio (Ratio)
system.cpu.branchPred.perceptron.RASUsed            0                       # Number of times the RAS was used to get a target. (Count)
system.cpu.branchPred.perceptron.RASIncorrect            0                       # Number of incorrect RAS predictions. (Count)
system.cpu.branchPred.perceptron.indirectLookups            0                       # Number of indirect predictor lookups. (Count)
system.cpu.branchPred.perceptron.indirectHits            0                       # Number of indirect target hits. (Count)
system.cpu.branchPred.perceptron.indirectMisses            0                       # Number of indirect misses. (Count)
system.cpu.branchPred.perceptron.indirectMispredicted            0                       # Number of mispredicted indirect branches. (Count)
system.cpu.branchPred.tage.lookups                  0                       # Number of BP lookups (Count)
system.cpu.branchPred.tage.condPredicted            0                       # Number of conditional branches predicted (Count)
system.cpu.branchPred.tage.condIncorrect            0                       # Number of conditional branches incorrect (Count)
system.cpu.branchPred.tage.BTBLookups               0                       # Number of BTB lookups (Count)
system.cpu.branchPred.tage.BTBHits                  0                       # Number of BTB hits (Count)
system.cpu.branchPred.tage.BTBHitRatio            nan                       # BTB Hit Ratio (Ratio)
system.cpu.branchPred.tage.RASUsed                  0                       # Number of times the RAS was used to get a target. (Count)
system.cpu.branchPred.tage.RASIncorrect             0                       # Number of incorrect RAS predictions. (Count)
system.cpu.branchPred.tage.indirectLookups            0                       # Number of indirect predictor lookups. (Count)
system.cpu.branchPred.tage.indirectHits             0                       # Number of indirect target hits. (Count)
system.cpu.branchPred.tage.indirectMisses            0                       # Number of indirect misses. (Count)
system.cpu.branchPred.tage.indirectMispredicted            0                       # Number of mispredicted indirect branches. (Count)
system.cpu.branchPred.tage.tage.longestMatchProviderCorrect       624194                       # Number of times TAGE Longest Match is the provider and the prediction is correct (Count)
system.cpu.branchPred.tage.tage.altMatchProviderCorrect         4017                       # Number of times TAGE Alt Match is the provider and the prediction is correct (Count)
system.cpu.branchPred.tage.tage.bimodalAltMatchProviderCorrect         1112                       # Number of times TAGE Alt Match is the bimodal and it is the provider and the prediction is correct (Count)
system.cpu.branchPred.tage.tage.bimodalProviderCorrect       374046                       # Number of times there are no hits on the TAGE tables and the bimodal prediction is correct (Count)
system.cpu.branchPred.tage.tage.longestMatchProviderWrong        18188                       # Number of times TAGE Longest Match is the provider and the prediction is wrong (Count)
system.cpu.branchPred.tage.tage.altMatchProviderWrong         2605                       # Number of times TAGE Alt Match is the provider and the prediction is wrong (Count)
system.cpu.branchPred.tage.tage.bimodalAltMatchProviderWrong          649                       # Number of times TAGE Alt Match is the bimodal and it is the provider and the prediction is wrong (Count)
system.cpu.branchPred.tage.tage.bimodalProviderWrong         4868                       # Number of times there are no hits on the TAGE tables and the bimodal prediction is wrong (Count)
system.cpu.branchPred.tage.tage.altMatchProviderWouldHaveHit         7825                       # Number of times TAGE Longest Match is the provider, the prediction is wrong and Alt Match prediction was correct (Count)
system.cpu.branchPred.tage.tage.longestMatchProviderWouldHaveHit         2215                       # Number of times TAGE Alt Match is the provider, the prediction is wrong and Longest Match prediction was correct (Count)
system.cpu.branchPred.tage.tage.longestMatchProvider::0            0                       # TAGE provider for longest match (Count)
system.cpu.branchPred.tage.tage.longestMatchProvider::1       121942                       # TAGE provider for longest match (Count)
system.cpu.branchPred.tage.tage.longestMatchProvider::2       102659                       # TAGE provider for longest match (Count)
system.cpu.branchPred.tage.tage.longestMatchProvider::3        84167                       # TAGE provider for longest match (Count)
system.cpu.branchPred.tage.tage.longestMatchProvider::4        85810                       # TAGE provider for longest match (Count)
system.cpu.branchPred.tage.tage.longestMatchProvider::5       138568                       # TAGE provider for longest match (Count)
system.cpu.branchPred.tage.tage.longestMatchProvider::6        49828                       # TAGE provider for longest match (Count)
system.cpu.branchPred.tage.tage.longestMatchProvider::7        22749                       # TAGE provider for longest match (Count)
system.cpu.branchPred.tage.tage.longestMatchProvider::8        12189                       # TAGE provider for longest match (Count)
system.cpu.branchPred.tage.tage.longestMatchProvider::9        31092                       # TAGE provider for longest match (Count)
system.cpu.branchPred.tage.tage.altMatchProvider::0       272485                       # TAGE provider for alt match (Count)
system.cpu.branchPred.tage.tage.altMatchProvider::1        95541                       # TAGE provider for alt match (Count)
system.cpu.branchPred.tage.tage.altMatchProvider::2        56550                       # TAGE provider for alt match (Count)
system.cpu.branchPred.tage.tage.altMatchProvider::3        66881                       # TAGE provider for alt match (Count)
system.cpu.branchPred.tage.tage.altMatchProvider::4        69387                       # TAGE provider for alt match (Count)
system.cpu.branchPred.tage.tage.altMatchProvider::5        44308                       # TAGE provider for alt match (Count)
system.cpu.branchPred.tage.tage.altMatchProvider::6        15793                       # TAGE provider for alt match (Count)
system.cpu.branchPred.tage.tage.altMatchProvider::7        10581                       # TAGE provider for alt match (Count)
system.cpu.branchPred.tage.tage.altMatchProvider::8        17478                       # TAGE provider for alt match (Count)
system.cpu.branchPred.tage.tage.altMatchProvider::9            0                       # TAGE provider for alt match (Count)
system.cpu.commit.commitSquashedInsts         1819392                       # The number of squashed insts skipped by commit (Count)
system.cpu.commit.commitNonSpecStalls            7781                       # The number of times commit has been forced to stall to communicate backwards (Count)
system.cpu.commit.branchMispredicts             34960                       # The number of times a branch was mispredicted (Count)
system.cpu.commit.numCommittedDist::samples      3696803                       # Number of insts commited each cycle (Count)
system.cpu.commit.numCommittedDist::mean     3.108927                       # Number of insts commited each cycle (Count)
system.cpu.commit.numCommittedDist::stdev     2.990845                       # Number of insts commited each cycle (Count)
system.cpu.commit.numCommittedDist::underflows            0      0.00%      0.00% # Number of insts commited each cycle (Count)
system.cpu.commit.numCommittedDist::0         1054266     28.52%     28.52% # Number of insts commited each cycle (Count)
system.cpu.commit.numCommittedDist::1          518078     14.01%     42.53% # Number of insts commited each cycle (Count)
system.cpu.commit.numCommittedDist::2          286941      7.76%     50.29% # Number of insts commited each cycle (Count)
system.cpu.commit.numCommittedDist::3          520240     14.07%     64.37% # Number of insts commited each cycle (Count)
system.cpu.commit.numCommittedDist::4          202520      5.48%     69.85% # Number of insts commited each cycle (Count)
system.cpu.commit.numCommittedDist::5          136584      3.69%     73.54% # Number of insts commited each cycle (Count)
system.cpu.commit.numCommittedDist::6          181656      4.91%     78.45% # Number of insts commited each cycle (Count)
system.cpu.commit.numCommittedDist::7          114671      3.10%     81.56% # Number of insts commited each cycle (Count)
system.cpu.commit.numCommittedDist::8          681847     18.44%    100.00% # Number of insts commited each cycle (Count)
system.cpu.commit.numCommittedDist::overflows            0      0.00%    100.00% # Number of insts commited each cycle (Count)
system.cpu.commit.numCommittedDist::min_value            0                       # Number of insts commited each cycle (Count)
system.cpu.commit.numCommittedDist::max_value            8                       # Number of insts commited each cycle (Count)
system.cpu.commit.numCommittedDist::total      3696803                       # Number of insts commited each cycle (Count)
system.cpu.commit.instsCommitted              5989129                       # Number of instructions committed (Count)
system.cpu.commit.opsCommitted               11493089                       # Number of ops (including micro ops) committed (Count)
system.cpu.commit.memRefs                     2663210                       # Number of memory references committed (Count)
system.cpu.commit.loads                       1673889                       # Number of loads committed (Count)
system.cpu.commit.amos                              0                       # Number of atomic instructions committed (Count)
system.cpu.commit.membars                        4820                       # Number of memory barriers committed (Count)
system.cpu.commit.branches                    1314589                       # Number of branches committed (Count)
system.cpu.commit.vectorInstructions                0                       # Number of committed Vector instructions. (Count)
system.cpu.commit.floating                       1505                       # Number of committed floating point instructions. (Count)
system.cpu.commit.integer                    11432050                       # Number of committed integer instructions. (Count)
system.cpu.commit.functionCalls                 94785                       # Number of function calls committed. (Count)
system.cpu.commit.committedInstType_0::No_OpClass         3335      0.03%      0.03% # Class of committed instruction (Count)
system.cpu.commit.committedInstType_0::IntAlu      8825062     76.79%     76.81% # Class of committed instruction (Count)
system.cpu.commit.committedInstType_0::IntMult          213      0.00%     76.82% # Class of committed instruction (Count)
system.cpu.commit.committedInstType_0::IntDiv         1119      0.01%     76.83% # Class of committed instruction (Count)
system.cpu.commit.committedInstType_0::FloatAdd           50      0.00%     76.83% # Class of committed instruction (Count)
system.cpu.commit.committedInstType_0::FloatCmp          100      0.00%     76.83% # Class of committed instruction (Count)
system.cpu.commit.committedInstType_0::FloatCvt            0      0.00%     76.83% # Class of committed instruction (Count)
system.cpu.commit.committedInstType_0::FloatMult            0      0.00%     76.83% # Class of committed instruction (Count)
system.cpu.commit.committedInstType_0::FloatMultAcc            0      0.00%     76.83% # Class of committed instruction (Count)
system.cpu.commit.committedInstType_0::FloatDiv            0      0.00%     76.83% # Class of committed instruction (Count)
system.cpu.commit.committedInstType_0::FloatMisc            0      0.00%     76.83% # Class of committed instruction (Count)
system.cpu.commit.committedInstType_0::FloatSqrt            0      0.00%     76.83% # Class of committed instruction (Count)
system.cpu.commit.committedInstType_0::SimdAdd            0      0.00%     76.83% # Class of committed instruction (Count)
system.cpu.commit.committedInstType_0::SimdAddAcc            0      0.00%     76.83% # Class of committed instruction (Count)
system.cpu.commit.committedInstType_0::SimdAlu            0      0.00%     76.83% # Class of committed instruction (Count)
system.cpu.commit.committedInstType_0::SimdCmp            0      0.00%     76.83% # Class of committed instruction (Count)
system.cpu.commit.committedInstType_0::SimdCvt            0      0.00%     76.83% # Class of committed instruction (Count)
system.cpu.commit.committedInstType_0::SimdMisc            0      0.00%     76.83% # Class of committed instruction (Count)
system.cpu.commit.committedInstType_0::SimdMult            0      0.00%     76.83% # Class of committed instruction (Count)
system.cpu.commit.committedInstType_0::SimdMultAcc            0      0.00%     76.83% # Class of committed instruction (Count)
system.cpu.commit.committedInstType_0::SimdShift            0      0.00%     76.83% # Class of committed instruction (Count)
system.cpu.commit.committedInstType_0::SimdShiftAcc            0      0.00%     76.83% # Class of committed instruction (Count)
system.cpu.commit.committedInstType_0::SimdDiv            0      0.00%     76.83% # Class of committed instruction (Count)
system.cpu.commit.committedInstType_0::SimdSqrt            0      0.00%     76.83% # Class of committed instruction (Count)
system.cpu.commit.committedInstType_0::SimdFloatAdd            0      0.00%     76.83% # Class of committed instruction (Count)
system.cpu.commit.committedInstType_0::SimdFloatAlu            0      0.00%     76.83% # Class of committed instruction (Count)
system.cpu.commit.committedInstType_0::SimdFloatCmp            0      0.00%     76.83% # Class of committed instruction (Count)
system.cpu.commit.committedInstType_0::SimdFloatCvt            0      0.00%     76.83% # Class of committed instruction (Count)
system.cpu.commit.committedInstType_0::SimdFloatDiv            0      0.00%     76.83% # Class of committed instruction (Count)
system.cpu.commit.committedInstType_0::SimdFloatMisc            0      0.00%     76.83% # Class of committed instruction (Count)
system.cpu.commit.committedInstType_0::SimdFloatMult            0      0.00%     76.83% # Class of committed instruction (Count)
system.cpu.commit.committedInstType_0::SimdFloatMultAcc            0      0.00%     76.83% # Class of committed instruction (Count)
system.cpu.commit.committedInstType_0::SimdFloatSqrt            0      0.00%     76.83% # Class of committed instruction (Count)
system.cpu.commit.committedInstType_0::SimdReduceAdd            0      0.00%     76.83% # Class of committed instruction (Count)
system.cpu.commit.committedInstType_0::SimdReduceAlu            0      0.00%     76.83% # Class of committed instruction (Count)
system.cpu.commit.committedInstType_0::SimdReduceCmp            0      0.00%     76.83% # Class of committed instruction (Count)
system.cpu.commit.committedInstType_0::SimdFloatReduceAdd            0      0.00%     76.83% # Class of committed instruction (Count)
system.cpu.commit.committedInstType_0::SimdFloatReduceCmp            0      0.00%     76.83% # Class of committed instruction (Count)
system.cpu.commit.committedInstType_0::SimdAes            0      0.00%     76.83% # Class of committed instruction (Count)
system.cpu.commit.committedInstType_0::SimdAesMix            0      0.00%     76.83% # Class of committed instruction (Count)
system.cpu.commit.committedInstType_0::SimdSha1Hash            0      0.00%     76.83% # Class of committed instruction (Count)
system.cpu.commit.committedInstType_0::SimdSha1Hash2            0      0.00%     76.83% # Class of committed instruction (Count)
system.cpu.commit.committedInstType_0::SimdSha256Hash            0      0.00%     76.83% # Class of committed instruction (Count)
system.cpu.commit.committedInstType_0::SimdSha256Hash2            0      0.00%     76.83% # Class of committed instruction (Count)
system.cpu.commit.committedInstType_0::SimdShaSigma2            0      0.00%     76.83% # Class of committed instruction (Count)
system.cpu.commit.committedInstType_0::SimdShaSigma3            0      0.00%     76.83% # Class of committed instruction (Count)
system.cpu.commit.committedInstType_0::SimdPredAlu            0      0.00%     76.83% # Class of committed instruction (Count)
system.cpu.commit.committedInstType_0::MemRead      1673525     14.56%     91.39% # Class of committed instruction (Count)
system.cpu.commit.committedInstType_0::MemWrite       989077      8.61%     99.99% # Class of committed instruction (Count)
system.cpu.commit.committedInstType_0::FloatMemRead          364      0.00%    100.00% # Class of committed instruction (Count)
system.cpu.commit.committedInstType_0::FloatMemWrite          244      0.00%    100.00% # Class of committed instruction (Count)
system.cpu.commit.committedInstType_0::IprAccess            0      0.00%    100.00% # Class of committed instruction (Count)
system.cpu.commit.committedInstType_0::InstPrefetch            0      0.00%    100.00% # Class of committed instruction (Count)
system.cpu.commit.committedInstType_0::total     11493089                       # Class of committed instruction (Count)
system.cpu.commit.commitEligibleSamples        681847                       # number cycles where commit BW limit reached (Cycle)
system.cpu.dcache.demandHits::cpu.data        2311178                       # number of demand (read+write) hits (Count)
system.cpu.dcache.demandHits::total           2311178                       # number of demand (read+write) hits (Count)
system.cpu.dcache.overallHits::cpu.data       2311178                       # number of overall hits (Count)
system.cpu.dcache.overallHits::total          2311178                       # number of overall hits (Count)
system.cpu.dcache.demandMisses::cpu.data         4988                       # number of demand (read+write) misses (Count)
system.cpu.dcache.demandMisses::total            4988                       # number of demand (read+write) misses (Count)
system.cpu.dcache.overallMisses::cpu.data         4988                       # number of overall misses (Count)
system.cpu.dcache.overallMisses::total           4988                       # number of overall misses (Count)
system.cpu.dcache.demandMissLatency::cpu.data    308854999                       # number of demand (read+write) miss ticks (Tick)
system.cpu.dcache.demandMissLatency::total    308854999                       # number of demand (read+write) miss ticks (Tick)
system.cpu.dcache.overallMissLatency::cpu.data    308854999                       # number of overall miss ticks (Tick)
system.cpu.dcache.overallMissLatency::total    308854999                       # number of overall miss ticks (Tick)
system.cpu.dcache.demandAccesses::cpu.data      2316166                       # number of demand (read+write) accesses (Count)
system.cpu.dcache.demandAccesses::total       2316166                       # number of demand (read+write) accesses (Count)
system.cpu.dcache.overallAccesses::cpu.data      2316166                       # number of overall (read+write) accesses (Count)
system.cpu.dcache.overallAccesses::total      2316166                       # number of overall (read+write) accesses (Count)
system.cpu.dcache.demandMissRate::cpu.data     0.002154                       # miss rate for demand accesses (Ratio)
system.cpu.dcache.demandMissRate::total      0.002154                       # miss rate for demand accesses (Ratio)
system.cpu.dcache.overallMissRate::cpu.data     0.002154                       # miss rate for overall accesses (Ratio)
system.cpu.dcache.overallMissRate::total     0.002154                       # miss rate for overall accesses (Ratio)
system.cpu.dcache.demandAvgMissLatency::cpu.data 61919.606856                       # average overall miss latency ((Cycle/Count))
system.cpu.dcache.demandAvgMissLatency::total 61919.606856                       # average overall miss latency ((Cycle/Count))
system.cpu.dcache.overallAvgMissLatency::cpu.data 61919.606856                       # average overall miss latency ((Cycle/Count))
system.cpu.dcache.overallAvgMissLatency::total 61919.606856                       # average overall miss latency ((Cycle/Count))
system.cpu.dcache.blockedCycles::no_mshrs          955                       # number of cycles access was blocked (Cycle)
system.cpu.dcache.blockedCycles::no_targets            0                       # number of cycles access was blocked (Cycle)
system.cpu.dcache.blockedCauses::no_mshrs           13                       # number of times access was blocked (Count)
system.cpu.dcache.blockedCauses::no_targets            0                       # number of times access was blocked (Count)
system.cpu.dcache.avgBlocked::no_mshrs      73.461538                       # average number of cycles each access was blocked ((Cycle/Count))
system.cpu.dcache.avgBlocked::no_targets          nan                       # average number of cycles each access was blocked ((Cycle/Count))
system.cpu.dcache.writebacks::writebacks         1842                       # number of writebacks (Count)
system.cpu.dcache.writebacks::total              1842                       # number of writebacks (Count)
system.cpu.dcache.demandMshrHits::cpu.data         1903                       # number of demand (read+write) MSHR hits (Count)
system.cpu.dcache.demandMshrHits::total          1903                       # number of demand (read+write) MSHR hits (Count)
system.cpu.dcache.overallMshrHits::cpu.data         1903                       # number of overall MSHR hits (Count)
system.cpu.dcache.overallMshrHits::total         1903                       # number of overall MSHR hits (Count)
system.cpu.dcache.demandMshrMisses::cpu.data         3085                       # number of demand (read+write) MSHR misses (Count)
system.cpu.dcache.demandMshrMisses::total         3085                       # number of demand (read+write) MSHR misses (Count)
system.cpu.dcache.overallMshrMisses::cpu.data         3085                       # number of overall MSHR misses (Count)
system.cpu.dcache.overallMshrMisses::total         3085                       # number of overall MSHR misses (Count)
system.cpu.dcache.demandMshrMissLatency::cpu.data    184238000                       # number of demand (read+write) MSHR miss ticks (Tick)
system.cpu.dcache.demandMshrMissLatency::total    184238000                       # number of demand (read+write) MSHR miss ticks (Tick)
system.cpu.dcache.overallMshrMissLatency::cpu.data    184238000                       # number of overall MSHR miss ticks (Tick)
system.cpu.dcache.overallMshrMissLatency::total    184238000                       # number of overall MSHR miss ticks (Tick)
system.cpu.dcache.demandMshrMissRate::cpu.data     0.001332                       # mshr miss ratio for demand accesses (Ratio)
system.cpu.dcache.demandMshrMissRate::total     0.001332                       # mshr miss ratio for demand accesses (Ratio)
system.cpu.dcache.overallMshrMissRate::cpu.data     0.001332                       # mshr miss ratio for overall accesses (Ratio)
system.cpu.dcache.overallMshrMissRate::total     0.001332                       # mshr miss ratio for overall accesses (Ratio)
system.cpu.dcache.demandAvgMshrMissLatency::cpu.data 59720.583468                       # average overall mshr miss latency ((Cycle/Count))
system.cpu.dcache.demandAvgMshrMissLatency::total 59720.583468                       # average overall mshr miss latency ((Cycle/Count))
system.cpu.dcache.overallAvgMshrMissLatency::cpu.data 59720.583468                       # average overall mshr miss latency ((Cycle/Count))
system.cpu.dcache.overallAvgMshrMissLatency::total 59720.583468                       # average overall mshr miss latency ((Cycle/Count))
system.cpu.dcache.replacements                   2570                       # number of replacements (Count)
system.cpu.dcache.ReadReq.hits::cpu.data      1323404                       # number of ReadReq hits (Count)
system.cpu.dcache.ReadReq.hits::total         1323404                       # number of ReadReq hits (Count)
system.cpu.dcache.ReadReq.misses::cpu.data         3357                       # number of ReadReq misses (Count)
system.cpu.dcache.ReadReq.misses::total          3357                       # number of ReadReq misses (Count)
system.cpu.dcache.ReadReq.missLatency::cpu.data    186478500                       # number of ReadReq miss ticks (Tick)
system.cpu.dcache.ReadReq.missLatency::total    186478500                       # number of ReadReq miss ticks (Tick)
system.cpu.dcache.ReadReq.accesses::cpu.data      1326761                       # number of ReadReq accesses(hits+misses) (Count)
system.cpu.dcache.ReadReq.accesses::total      1326761                       # number of ReadReq accesses(hits+misses) (Count)
system.cpu.dcache.ReadReq.missRate::cpu.data     0.002530                       # miss rate for ReadReq accesses (Ratio)
system.cpu.dcache.ReadReq.missRate::total     0.002530                       # miss rate for ReadReq accesses (Ratio)
system.cpu.dcache.ReadReq.avgMissLatency::cpu.data 55549.151028                       # average ReadReq miss latency ((Tick/Count))
system.cpu.dcache.ReadReq.avgMissLatency::total 55549.151028                       # average ReadReq miss latency ((Tick/Count))
system.cpu.dcache.ReadReq.mshrHits::cpu.data         1858                       # number of ReadReq MSHR hits (Count)
system.cpu.dcache.ReadReq.mshrHits::total         1858                       # number of ReadReq MSHR hits (Count)
system.cpu.dcache.ReadReq.mshrMisses::cpu.data         1499                       # number of ReadReq MSHR misses (Count)
system.cpu.dcache.ReadReq.mshrMisses::total         1499                       # number of ReadReq MSHR misses (Count)
system.cpu.dcache.ReadReq.mshrMissLatency::cpu.data     67028000                       # number of ReadReq MSHR miss ticks (Tick)
system.cpu.dcache.ReadReq.mshrMissLatency::total     67028000                       # number of ReadReq MSHR miss ticks (Tick)
system.cpu.dcache.ReadReq.mshrMissRate::cpu.data     0.001130                       # mshr miss rate for ReadReq accesses (Ratio)
system.cpu.dcache.ReadReq.mshrMissRate::total     0.001130                       # mshr miss rate for ReadReq accesses (Ratio)
system.cpu.dcache.ReadReq.avgMshrMissLatency::cpu.data 44715.143429                       # average ReadReq mshr miss latency ((Tick/Count))
system.cpu.dcache.ReadReq.avgMshrMissLatency::total 44715.143429                       # average ReadReq mshr miss latency ((Tick/Count))
system.cpu.dcache.WriteReq.hits::cpu.data       987774                       # number of WriteReq hits (Count)
system.cpu.dcache.WriteReq.hits::total         987774                       # number of WriteReq hits (Count)
system.cpu.dcache.WriteReq.misses::cpu.data         1631                       # number of WriteReq misses (Count)
system.cpu.dcache.WriteReq.misses::total         1631                       # number of WriteReq misses (Count)
system.cpu.dcache.WriteReq.missLatency::cpu.data    122376499                       # number of WriteReq miss ticks (Tick)
system.cpu.dcache.WriteReq.missLatency::total    122376499                       # number of WriteReq miss ticks (Tick)
system.cpu.dcache.WriteReq.accesses::cpu.data       989405                       # number of WriteReq accesses(hits+misses) (Count)
system.cpu.dcache.WriteReq.accesses::total       989405                       # number of WriteReq accesses(hits+misses) (Count)
system.cpu.dcache.WriteReq.missRate::cpu.data     0.001648                       # miss rate for WriteReq accesses (Ratio)
system.cpu.dcache.WriteReq.missRate::total     0.001648                       # miss rate for WriteReq accesses (Ratio)
system.cpu.dcache.WriteReq.avgMissLatency::cpu.data 75031.575107                       # average WriteReq miss latency ((Tick/Count))
system.cpu.dcache.WriteReq.avgMissLatency::total 75031.575107                       # average WriteReq miss latency ((Tick/Count))
system.cpu.dcache.WriteReq.mshrHits::cpu.data           45                       # number of WriteReq MSHR hits (Count)
system.cpu.dcache.WriteReq.mshrHits::total           45                       # number of WriteReq MSHR hits (Count)
system.cpu.dcache.WriteReq.mshrMisses::cpu.data         1586                       # number of WriteReq MSHR misses (Count)
system.cpu.dcache.WriteReq.mshrMisses::total         1586                       # number of WriteReq MSHR misses (Count)
system.cpu.dcache.WriteReq.mshrMissLatency::cpu.data    117210000                       # number of WriteReq MSHR miss ticks (Tick)
system.cpu.dcache.WriteReq.mshrMissLatency::total    117210000                       # number of WriteReq MSHR miss ticks (Tick)
system.cpu.dcache.WriteReq.mshrMissRate::cpu.data     0.001603                       # mshr miss rate for WriteReq accesses (Ratio)
system.cpu.dcache.WriteReq.mshrMissRate::total     0.001603                       # mshr miss rate for WriteReq accesses (Ratio)
system.cpu.dcache.WriteReq.avgMshrMissLatency::cpu.data 73902.900378                       # average WriteReq mshr miss latency ((Tick/Count))
system.cpu.dcache.WriteReq.avgMshrMissLatency::total 73902.900378                       # average WriteReq mshr miss latency ((Tick/Count))
system.cpu.dcache.power_state.pwrStateResidencyTicks::UNDEFINED   2044960500                       # Cumulative time (in ticks) in various power states (Tick)
system.cpu.dcache.tags.tagsInUse           482.673071                       # Average ticks per tags in use ((Tick/Count))
system.cpu.dcache.tags.totalRefs              2314264                       # Total number of references to valid blocks. (Count)
system.cpu.dcache.tags.sampledRefs               3082                       # Sample count of references to valid blocks. (Count)
system.cpu.dcache.tags.avgRefs             750.896820                       # Average number of references to valid blocks. ((Count/Count))
system.cpu.dcache.tags.warmupTick              176500                       # The tick when the warmup percentage was hit. (Tick)
system.cpu.dcache.tags.occupancies::cpu.data   482.673071                       # Average occupied blocks per tick, per requestor ((Count/Tick))
system.cpu.dcache.tags.avgOccs::cpu.data     0.942721                       # Average percentage of cache occupancy ((Ratio/Tick))
system.cpu.dcache.tags.avgOccs::total        0.942721                       # Average percentage of cache occupancy ((Ratio/Tick))
system.cpu.dcache.tags.occupanciesTaskId::1024          512                       # Occupied blocks per task id (Count)
system.cpu.dcache.tags.ageTaskId_1024::0           44                       # Occupied blocks per task id, per block age (Count)
system.cpu.dcache.tags.ageTaskId_1024::1          125                       # Occupied blocks per task id, per block age (Count)
system.cpu.dcache.tags.ageTaskId_1024::2          256                       # Occupied blocks per task id, per block age (Count)
system.cpu.dcache.tags.ageTaskId_1024::3           87                       # Occupied blocks per task id, per block age (Count)
system.cpu.dcache.tags.ratioOccsTaskId::1024            1                       # Ratio of occupied blocks and all blocks, per task id (Ratio)
system.cpu.dcache.tags.tagAccesses            9267746                       # Number of tag accesses (Count)
system.cpu.dcache.tags.dataAccesses           9267746                       # Number of data accesses (Count)
system.cpu.dcache.tags.power_state.pwrStateResidencyTicks::UNDEFINED   2044960500                       # Cumulative time (in ticks) in various power states (Tick)
system.cpu.decode.idleCycles                  1006835                       # Number of cycles decode is idle (Cycle)
system.cpu.decode.blockedCycles                794147                       # Number of cycles decode is blocked (Cycle)
system.cpu.decode.runCycles                   1878136                       # Number of cycles decode is running (Cycle)
system.cpu.decode.unblockCycles                229948                       # Number of cycles decode is unblocking (Cycle)
system.cpu.decode.squashCycles                  40738                       # Number of cycles decode is squashing (Cycle)
system.cpu.decode.branchResolved               703128                       # Number of times decode resolved a branch (Count)
system.cpu.decode.branchMispred                  7936                       # Number of times decode detected a branch misprediction (Count)
system.cpu.decode.decodedInsts               13796701                       # Number of instructions handled by decode (Count)
system.cpu.decode.squashedInsts                 35123                       # Number of squashed instructions handled by decode (Count)
system.cpu.dtb_walker_cache.blockedCycles::no_mshrs            0                       # number of cycles access was blocked (Cycle)
system.cpu.dtb_walker_cache.blockedCycles::no_targets            0                       # number of cycles access was blocked (Cycle)
system.cpu.dtb_walker_cache.blockedCauses::no_mshrs            0                       # number of times access was blocked (Count)
system.cpu.dtb_walker_cache.blockedCauses::no_targets            0                       # number of times access was blocked (Count)
system.cpu.dtb_walker_cache.avgBlocked::no_mshrs          nan                       # average number of cycles each access was blocked ((Cycle/Count))
system.cpu.dtb_walker_cache.avgBlocked::no_targets          nan                       # average number of cycles each access was blocked ((Cycle/Count))
system.cpu.dtb_walker_cache.replacements            0                       # number of replacements (Count)
system.cpu.dtb_walker_cache.power_state.pwrStateResidencyTicks::UNDEFINED   2044960500                       # Cumulative time (in ticks) in various power states (Tick)
system.cpu.dtb_walker_cache.tags.tagsInUse            0                       # Average ticks per tags in use ((Tick/Count))
system.cpu.dtb_walker_cache.tags.totalRefs            0                       # Total number of references to valid blocks. (Count)
system.cpu.dtb_walker_cache.tags.sampledRefs            0                       # Sample count of references to valid blocks. (Count)
system.cpu.dtb_walker_cache.tags.avgRefs          nan                       # Average number of references to valid blocks. ((Count/Count))
system.cpu.dtb_walker_cache.tags.warmupTick            0                       # The tick when the warmup percentage was hit. (Tick)
system.cpu.dtb_walker_cache.tags.tagAccesses            0                       # Number of tag accesses (Count)
system.cpu.dtb_walker_cache.tags.dataAccesses            0                       # Number of data accesses (Count)
system.cpu.dtb_walker_cache.tags.power_state.pwrStateResidencyTicks::UNDEFINED   2044960500                       # Cumulative time (in ticks) in various power states (Tick)
system.cpu.fetch.icacheStallCycles            1103329                       # Number of cycles fetch is stalled on an Icache miss (Cycle)
system.cpu.fetch.insts                        7385187                       # Number of instructions fetch has processed (Count)
system.cpu.fetch.branches                     1632968                       # Number of branches that fetch encountered (Count)
system.cpu.fetch.predictedBranches             857138                       # Number of branches that fetch has predicted taken (Count)
system.cpu.fetch.cycles                       2794986                       # Number of cycles fetch has run and was not squashing or blocked (Cycle)
system.cpu.fetch.squashCycles                   96870                       # Number of cycles fetch has spent squashing (Cycle)
system.cpu.fetch.miscStallCycles                  372                       # Number of cycles fetch has spent waiting on interrupts, or bad addresses, or out of MSHRs (Cycle)
system.cpu.fetch.pendingTrapStallCycles          2661                       # Number of stall cycles due to pending traps (Cycle)
system.cpu.fetch.pendingQuiesceStallCycles           20                       # Number of stall cycles due to pending quiesce instructions (Cycle)
system.cpu.fetch.icacheWaitRetryStallCycles            1                       # Number of stall cycles due to full MSHR (Cycle)
system.cpu.fetch.cacheLines                    890260                       # Number of cache lines fetched (Count)
system.cpu.fetch.icacheSquashes                 13874                       # Number of outstanding Icache misses that were squashed (Count)
system.cpu.fetch.nisnDist::samples            3949804                       # Number of instructions fetched each cycle (Total) (Count)
system.cpu.fetch.nisnDist::mean              3.601663                       # Number of instructions fetched each cycle (Total) (Count)
system.cpu.fetch.nisnDist::stdev             3.574254                       # Number of instructions fetched each cycle (Total) (Count)
system.cpu.fetch.nisnDist::underflows               0      0.00%      0.00% # Number of instructions fetched each cycle (Total) (Count)
system.cpu.fetch.nisnDist::0                  1615313     40.90%     40.90% # Number of instructions fetched each cycle (Total) (Count)
system.cpu.fetch.nisnDist::1                   205929      5.21%     46.11% # Number of instructions fetched each cycle (Total) (Count)
system.cpu.fetch.nisnDist::2                   185687      4.70%     50.81% # Number of instructions fetched each cycle (Total) (Count)
system.cpu.fetch.nisnDist::3                    84868      2.15%     52.96% # Number of instructions fetched each cycle (Total) (Count)
system.cpu.fetch.nisnDist::4                   171327      4.34%     57.30% # Number of instructions fetched each cycle (Total) (Count)
system.cpu.fetch.nisnDist::5                   130681      3.31%     60.61% # Number of instructions fetched each cycle (Total) (Count)
system.cpu.fetch.nisnDist::6                   141594      3.58%     64.19% # Number of instructions fetched each cycle (Total) (Count)
system.cpu.fetch.nisnDist::7                   109560      2.77%     66.96% # Number of instructions fetched each cycle (Total) (Count)
system.cpu.fetch.nisnDist::8                  1304845     33.04%    100.00% # Number of instructions fetched each cycle (Total) (Count)
system.cpu.fetch.nisnDist::overflows                0      0.00%    100.00% # Number of instructions fetched each cycle (Total) (Count)
system.cpu.fetch.nisnDist::min_value                0                       # Number of instructions fetched each cycle (Total) (Count)
system.cpu.fetch.nisnDist::max_value                8                       # Number of instructions fetched each cycle (Total) (Count)
system.cpu.fetch.nisnDist::total              3949804                       # Number of instructions fetched each cycle (Total) (Count)
system.cpu.fetch.branchRate                  0.399266                       # Number of branch fetches per cycle (Ratio)
system.cpu.fetch.rate                        1.805704                       # Number of inst fetches per cycle ((Count/Cycle))
system.cpu.icache.demandHits::cpu.inst         880058                       # number of demand (read+write) hits (Count)
system.cpu.icache.demandHits::total            880058                       # number of demand (read+write) hits (Count)
system.cpu.icache.overallHits::cpu.inst        880058                       # number of overall hits (Count)
system.cpu.icache.overallHits::total           880058                       # number of overall hits (Count)
system.cpu.icache.demandMisses::cpu.inst        10201                       # number of demand (read+write) misses (Count)
system.cpu.icache.demandMisses::total           10201                       # number of demand (read+write) misses (Count)
system.cpu.icache.overallMisses::cpu.inst        10201                       # number of overall misses (Count)
system.cpu.icache.overallMisses::total          10201                       # number of overall misses (Count)
system.cpu.icache.demandMissLatency::cpu.inst    272920500                       # number of demand (read+write) miss ticks (Tick)
system.cpu.icache.demandMissLatency::total    272920500                       # number of demand (read+write) miss ticks (Tick)
system.cpu.icache.overallMissLatency::cpu.inst    272920500                       # number of overall miss ticks (Tick)
system.cpu.icache.overallMissLatency::total    272920500                       # number of overall miss ticks (Tick)
system.cpu.icache.demandAccesses::cpu.inst       890259                       # number of demand (read+write) accesses (Count)
system.cpu.icache.demandAccesses::total        890259                       # number of demand (read+write) accesses (Count)
system.cpu.icache.overallAccesses::cpu.inst       890259                       # number of overall (read+write) accesses (Count)
system.cpu.icache.overallAccesses::total       890259                       # number of overall (read+write) accesses (Count)
system.cpu.icache.demandMissRate::cpu.inst     0.011458                       # miss rate for demand accesses (Ratio)
system.cpu.icache.demandMissRate::total      0.011458                       # miss rate for demand accesses (Ratio)
system.cpu.icache.overallMissRate::cpu.inst     0.011458                       # miss rate for overall accesses (Ratio)
system.cpu.icache.overallMissRate::total     0.011458                       # miss rate for overall accesses (Ratio)
system.cpu.icache.demandAvgMissLatency::cpu.inst 26754.288795                       # average overall miss latency ((Cycle/Count))
system.cpu.icache.demandAvgMissLatency::total 26754.288795                       # average overall miss latency ((Cycle/Count))
system.cpu.icache.overallAvgMissLatency::cpu.inst 26754.288795                       # average overall miss latency ((Cycle/Count))
system.cpu.icache.overallAvgMissLatency::total 26754.288795                       # average overall miss latency ((Cycle/Count))
system.cpu.icache.blockedCycles::no_mshrs          263                       # number of cycles access was blocked (Cycle)
system.cpu.icache.blockedCycles::no_targets            0                       # number of cycles access was blocked (Cycle)
system.cpu.icache.blockedCauses::no_mshrs            4                       # number of times access was blocked (Count)
system.cpu.icache.blockedCauses::no_targets            0                       # number of times access was blocked (Count)
system.cpu.icache.avgBlocked::no_mshrs      65.750000                       # average number of cycles each access was blocked ((Cycle/Count))
system.cpu.icache.avgBlocked::no_targets          nan                       # average number of cycles each access was blocked ((Cycle/Count))
system.cpu.icache.writebacks::writebacks         8366                       # number of writebacks (Count)
system.cpu.icache.writebacks::total              8366                       # number of writebacks (Count)
system.cpu.icache.demandMshrHits::cpu.inst         1319                       # number of demand (read+write) MSHR hits (Count)
system.cpu.icache.demandMshrHits::total          1319                       # number of demand (read+write) MSHR hits (Count)
system.cpu.icache.overallMshrHits::cpu.inst         1319                       # number of overall MSHR hits (Count)
system.cpu.icache.overallMshrHits::total         1319                       # number of overall MSHR hits (Count)
system.cpu.icache.demandMshrMisses::cpu.inst         8882                       # number of demand (read+write) MSHR misses (Count)
system.cpu.icache.demandMshrMisses::total         8882                       # number of demand (read+write) MSHR misses (Count)
system.cpu.icache.overallMshrMisses::cpu.inst         8882                       # number of overall MSHR misses (Count)
system.cpu.icache.overallMshrMisses::total         8882                       # number of overall MSHR misses (Count)
system.cpu.icache.demandMshrMissLatency::cpu.inst    229338000                       # number of demand (read+write) MSHR miss ticks (Tick)
system.cpu.icache.demandMshrMissLatency::total    229338000                       # number of demand (read+write) MSHR miss ticks (Tick)
system.cpu.icache.overallMshrMissLatency::cpu.inst    229338000                       # number of overall MSHR miss ticks (Tick)
system.cpu.icache.overallMshrMissLatency::total    229338000                       # number of overall MSHR miss ticks (Tick)
system.cpu.icache.demandMshrMissRate::cpu.inst     0.009977                       # mshr miss ratio for demand accesses (Ratio)
system.cpu.icache.demandMshrMissRate::total     0.009977                       # mshr miss ratio for demand accesses (Ratio)
system.cpu.icache.overallMshrMissRate::cpu.inst     0.009977                       # mshr miss ratio for overall accesses (Ratio)
system.cpu.icache.overallMshrMissRate::total     0.009977                       # mshr miss ratio for overall accesses (Ratio)
system.cpu.icache.demandAvgMshrMissLatency::cpu.inst 25820.535915                       # average overall mshr miss latency ((Cycle/Count))
system.cpu.icache.demandAvgMshrMissLatency::total 25820.535915                       # average overall mshr miss latency ((Cycle/Count))
system.cpu.icache.overallAvgMshrMissLatency::cpu.inst 25820.535915                       # average overall mshr miss latency ((Cycle/Count))
system.cpu.icache.overallAvgMshrMissLatency::total 25820.535915                       # average overall mshr miss latency ((Cycle/Count))
system.cpu.icache.replacements                   8366                       # number of replacements (Count)
system.cpu.icache.ReadReq.hits::cpu.inst       880058                       # number of ReadReq hits (Count)
system.cpu.icache.ReadReq.hits::total          880058                       # number of ReadReq hits (Count)
system.cpu.icache.ReadReq.misses::cpu.inst        10201                       # number of ReadReq misses (Count)
system.cpu.icache.ReadReq.misses::total         10201                       # number of ReadReq misses (Count)
system.cpu.icache.ReadReq.missLatency::cpu.inst    272920500                       # number of ReadReq miss ticks (Tick)
system.cpu.icache.ReadReq.missLatency::total    272920500                       # number of ReadReq miss ticks (Tick)
system.cpu.icache.ReadReq.accesses::cpu.inst       890259                       # number of ReadReq accesses(hits+misses) (Count)
system.cpu.icache.ReadReq.accesses::total       890259                       # number of ReadReq accesses(hits+misses) (Count)
system.cpu.icache.ReadReq.missRate::cpu.inst     0.011458                       # miss rate for ReadReq accesses (Ratio)
system.cpu.icache.ReadReq.missRate::total     0.011458                       # miss rate for ReadReq accesses (Ratio)
system.cpu.icache.ReadReq.avgMissLatency::cpu.inst 26754.288795                       # average ReadReq miss latency ((Tick/Count))
system.cpu.icache.ReadReq.avgMissLatency::total 26754.288795                       # average ReadReq miss latency ((Tick/Count))
system.cpu.icache.ReadReq.mshrHits::cpu.inst         1319                       # number of ReadReq MSHR hits (Count)
system.cpu.icache.ReadReq.mshrHits::total         1319                       # number of ReadReq MSHR hits (Count)
system.cpu.icache.ReadReq.mshrMisses::cpu.inst         8882                       # number of ReadReq MSHR misses (Count)
system.cpu.icache.ReadReq.mshrMisses::total         8882                       # number of ReadReq MSHR misses (Count)
system.cpu.icache.ReadReq.mshrMissLatency::cpu.inst    229338000                       # number of ReadReq MSHR miss ticks (Tick)
system.cpu.icache.ReadReq.mshrMissLatency::total    229338000                       # number of ReadReq MSHR miss ticks (Tick)
system.cpu.icache.ReadReq.mshrMissRate::cpu.inst     0.009977                       # mshr miss rate for ReadReq accesses (Ratio)
system.cpu.icache.ReadReq.mshrMissRate::total     0.009977                       # mshr miss rate for ReadReq accesses (Ratio)
system.cpu.icache.ReadReq.avgMshrMissLatency::cpu.inst 25820.535915                       # average ReadReq mshr miss latency ((Tick/Count))
[...]
system.mem_ctrls.dram.perBankWrBursts::15           14                       # Per bank write bursts (Count)
system.mem_ctrls.dram.totQLat                36661750                       # Total ticks spent queuing (Tick)
system.mem_ctrls.dram.totBusLat              19620000                       # Total ticks spent in databus transfers (Tick)
system.mem_ctrls.dram.totMemAccLat          110236750                       # Total ticks spent from burst creation until serviced by the DRAM (Tick)
system.mem_ctrls.dram.avgQLat                 9342.95                       # Average queueing delay per DRAM burst ((Tick/Count))
system.mem_ctrls.dram.avgBusLat               5000.00                       # Average bus latency per DRAM burst ((Tick/Count))
system.mem_ctrls.dram.avgMemAccLat           28092.95                       # Average memory access latency per DRAM burst ((Tick/Count))
system.mem_ctrls.dram.readRowHits                2756                       # Number of row buffer hits during reads (Count)
system.mem_ctrls.dram.writeRowHits                 27                       # Number of row buffer hits during writes (Count)
system.mem_ctrls.dram.readRowHitRate            70.23                       # Row buffer hit rate for reads (Ratio)
system.mem_ctrls.dram.writeRowHitRate           81.82                       # Row buffer hit rate for writes (Ratio)
system.mem_ctrls.dram.bytesPerActivate::samples         1162                       # Bytes accessed per row activation (Byte)
system.mem_ctrls.dram.bytesPerActivate::mean   216.399312                       # Bytes accessed per row activation (Byte)
system.mem_ctrls.dram.bytesPerActivate::gmean   145.203128                       # Bytes accessed per row activation (Byte)
system.mem_ctrls.dram.bytesPerActivate::stdev   230.028764                       # Bytes accessed per row activation (Byte)
system.mem_ctrls.dram.bytesPerActivate::0-127          466     40.10%     40.10% # Bytes accessed per row activation (Byte)
system.mem_ctrls.dram.bytesPerActivate::128-255          354     30.46%     70.57% # Bytes accessed per row activation (Byte)
system.mem_ctrls.dram.bytesPerActivate::256-383          154     13.25%     83.82% # Bytes accessed per row activation (Byte)
system.mem_ctrls.dram.bytesPerActivate::384-511           64      5.51%     89.33% # Bytes accessed per row activation (Byte)
system.mem_ctrls.dram.bytesPerActivate::512-639           30      2.58%     91.91% # Bytes accessed per row activation (Byte)
system.mem_ctrls.dram.bytesPerActivate::640-767           21      1.81%     93.72% # Bytes accessed per row activation (Byte)
system.mem_ctrls.dram.bytesPerActivate::768-895           21      1.81%     95.52% # Bytes accessed per row activation (Byte)
system.mem_ctrls.dram.bytesPerActivate::896-1023           18      1.55%     97.07% # Bytes accessed per row activation (Byte)
system.mem_ctrls.dram.bytesPerActivate::1024-1151           34      2.93%    100.00% # Bytes accessed per row activation (Byte)
system.mem_ctrls.dram.bytesPerActivate::total         1162                       # Bytes accessed per row activation (Byte)
system.mem_ctrls.dram.bytesRead                251136                       # Total number of bytes read from DRAM (Byte)
system.mem_ctrls.dram.bytesWritten               2112                       # Total number of bytes written to DRAM (Byte)
system.mem_ctrls.dram.avgRdBW              122.807262                       # Average DRAM read bandwidth in MiBytes/s ((Byte/Second))
system.mem_ctrls.dram.avgWrBW                1.032783                       # Average DRAM write bandwidth in MiBytes/s ((Byte/Second))
system.mem_ctrls.dram.peakBW                 12800.00                       # Theoretical peak bandwidth in MiByte/s ((Byte/Second))
system.mem_ctrls.dram.busUtil                    0.97                       # Data bus utilization in percentage (Ratio)
system.mem_ctrls.dram.busUtilRead                0.96                       # Data bus utilization in percentage for reads (Ratio)
system.mem_ctrls.dram.busUtilWrite               0.01                       # Data bus utilization in percentage for writes (Ratio)
system.mem_ctrls.dram.pageHitRate               70.33                       # Row buffer hit rate, read and write combined (Ratio)
system.mem_ctrls.dram.power_state.pwrStateResidencyTicks::UNDEFINED   2044960500                       # Cumulative time (in ticks) in various power states (Tick)
system.mem_ctrls.dram.rank0.actEnergy         5362140                       # Energy for activate commands per rank (pJ) (Joule)
system.mem_ctrls.dram.rank0.preEnergy         2823480                       # Energy for precharge commands per rank (pJ) (Joule)
system.mem_ctrls.dram.rank0.readEnergy       16779000                       # Energy for read commands per rank (pJ) (Joule)
system.mem_ctrls.dram.rank0.writeEnergy         78300                       # Energy for write commands per rank (pJ) (Joule)
system.mem_ctrls.dram.rank0.refreshEnergy 161035680.000000                       # Energy for refresh commands per rank (pJ) (Joule)
system.mem_ctrls.dram.rank0.actBackEnergy    697197210                       # Energy for active background per rank (pJ) (Joule)
system.mem_ctrls.dram.rank0.preBackEnergy    198151680                       # Energy for precharge background per rank (pJ) (Joule)
system.mem_ctrls.dram.rank0.actPowerDownEnergy            0                       # Energy for active power-down per rank (pJ) (Joule)
system.mem_ctrls.dram.rank0.prePowerDownEnergy            0                       # Energy for precharge power-down per rank (pJ) (Joule)
system.mem_ctrls.dram.rank0.selfRefreshEnergy            0                       # Energy for self refresh per rank (pJ) (Joule)
system.mem_ctrls.dram.rank0.totalEnergy    1081427490                       # Total energy per rank (pJ) (Joule)
system.mem_ctrls.dram.rank0.averagePower   528.825613                       # Core power per rank (mW) (Watt)
system.mem_ctrls.dram.rank0.totalIdleTime            0                       # Total Idle time Per DRAM Rank (Tick)
system.mem_ctrls.dram.rank0.pwrStateTime::IDLE    508468000                       # Time in different power states (Tick)
system.mem_ctrls.dram.rank0.pwrStateTime::REF     68120000                       # Time in different power states (Tick)
system.mem_ctrls.dram.rank0.pwrStateTime::SREF            0                       # Time in different power states (Tick)
system.mem_ctrls.dram.rank0.pwrStateTime::PRE_PDN            0                       # Time in different power states (Tick)
system.mem_ctrls.dram.rank0.pwrStateTime::ACT   1468372500                       # Time in different power states (Tick)
system.mem_ctrls.dram.rank0.pwrStateTime::ACT_PDN            0                       # Time in different power states (Tick)
system.mem_ctrls.dram.rank1.actEnergy         3020220                       # Energy for activate commands per rank (pJ) (Joule)
system.mem_ctrls.dram.rank1.preEnergy         1586310                       # Energy for precharge commands per rank (pJ) (Joule)
system.mem_ctrls.dram.rank1.readEnergy       11238360                       # Energy for read commands per rank (pJ) (Joule)
system.mem_ctrls.dram.rank1.writeEnergy         93960                       # Energy for write commands per rank (pJ) (Joule)
system.mem_ctrls.dram.rank1.refreshEnergy 161035680.000000                       # Energy for refresh commands per rank (pJ) (Joule)
system.mem_ctrls.dram.rank1.actBackEnergy    302078340                       # Energy for active background per rank (pJ) (Joule)
system.mem_ctrls.dram.rank1.preBackEnergy    530883360                       # Energy for precharge background per rank (pJ) (Joule)
system.mem_ctrls.dram.rank1.actPowerDownEnergy            0                       # Energy for active power-down per rank (pJ) (Joule)
system.mem_ctrls.dram.rank1.prePowerDownEnergy            0                       # Energy for precharge power-down per rank (pJ) (Joule)
system.mem_ctrls.dram.rank1.selfRefreshEnergy            0                       # Energy for self refresh per rank (pJ) (Joule)
system.mem_ctrls.dram.rank1.totalEnergy    1009936230                       # Total energy per rank (pJ) (Joule)
system.mem_ctrls.dram.rank1.averagePower   493.865886                       # Core power per rank (mW) (Watt)
system.mem_ctrls.dram.rank1.totalIdleTime            0                       # Total Idle time Per DRAM Rank (Tick)
system.mem_ctrls.dram.rank1.pwrStateTime::IDLE   1377175750                       # Time in different power states (Tick)
system.mem_ctrls.dram.rank1.pwrStateTime::REF     68120000                       # Time in different power states (Tick)
system.mem_ctrls.dram.rank1.pwrStateTime::SREF            0                       # Time in different power states (Tick)
system.mem_ctrls.dram.rank1.pwrStateTime::PRE_PDN            0                       # Time in different power states (Tick)
system.mem_ctrls.dram.rank1.pwrStateTime::ACT    599664750                       # Time in different power states (Tick)
system.mem_ctrls.dram.rank1.pwrStateTime::ACT_PDN            0                       # Time in different power states (Tick)
system.mem_ctrls.power_state.pwrStateResidencyTicks::UNDEFINED   2044960500                       # Cumulative time (in ticks) in various power states (Tick)
system.membus.transDist::ReadResp                2454                       # Transaction distribution (Count)
system.membus.transDist::WritebackDirty            58                       # Transaction distribution (Count)
system.membus.transDist::CleanEvict               192                       # Transaction distribution (Count)
system.membus.transDist::UpgradeReq                 1                       # Transaction distribution (Count)
system.membus.transDist::ReadExReq               1474                       # Transaction distribution (Count)
system.membus.transDist::ReadExResp              1474                       # Transaction distribution (Count)
system.membus.transDist::ReadSharedReq           2454                       # Transaction distribution (Count)
system.membus.pktCount_system.l2.mem_side_port::system.mem_ctrls.port         8107                       # Packet count per connected requestor and responder (Count)
system.membus.pktCount_system.l2.mem_side_port::total         8107                       # Packet count per connected requestor and responder (Count)
system.membus.pktCount::total                    8107                       # Packet count per connected requestor and responder (Count)
system.membus.pktSize_system.l2.mem_side_port::system.mem_ctrls.port       255104                       # Cumulative packet size per connected requestor and responder (Byte)
system.membus.pktSize_system.l2.mem_side_port::total       255104                       # Cumulative packet size per connected requestor and responder (Byte)
system.membus.pktSize::total                   255104                       # Cumulative packet size per connected requestor and responder (Byte)
system.membus.snoops                                0                       # Total snoops (Count)
system.membus.snoopTraffic                          0                       # Total snoop traffic (Byte)
system.membus.snoopFanout::samples               3929                       # Request fanout histogram (Count)
system.membus.snoopFanout::mean                     0                       # Request fanout histogram (Count)
system.membus.snoopFanout::stdev                    0                       # Request fanout histogram (Count)
system.membus.snoopFanout::underflows               0      0.00%      0.00% # Request fanout histogram (Count)
system.membus.snoopFanout::0                     3929    100.00%    100.00% # Request fanout histogram (Count)
system.membus.snoopFanout::1                        0      0.00%    100.00% # Request fanout histogram (Count)
system.membus.snoopFanout::overflows                0      0.00%    100.00% # Request fanout histogram (Count)
system.membus.snoopFanout::min_value                0                       # Request fanout histogram (Count)
system.membus.snoopFanout::max_value                0                       # Request fanout histogram (Count)
system.membus.snoopFanout::total                 3929                       # Request fanout histogram (Count)
system.membus.power_state.pwrStateResidencyTicks::UNDEFINED   2044960500                       # Cumulative time (in ticks) in various power states (Tick)
system.membus.reqLayer2.occupancy             5323000                       # Layer occupancy (ticks) (Tick)
system.membus.reqLayer2.utilization               0.0                       # Layer utilization (Ratio)
system.membus.respLayer1.occupancy           20936000                       # Layer occupancy (ticks) (Tick)
system.membus.respLayer1.utilization              0.0                       # Layer utilization (Ratio)
system.membus.snoop_filter.totRequests           4179                       # Total number of requests made to the snoop filter. (Count)
system.membus.snoop_filter.hitSingleRequests          251                       # Number of requests hitting in the snoop filter with a single holder of the requested data. (Count)
system.membus.snoop_filter.hitMultiRequests            0                       # Number of requests hitting in the snoop filter with multiple (>1) holders of the requested data. (Count)
system.membus.snoop_filter.totSnoops                0                       # Total number of snoops made to the snoop filter. (Count)
system.membus.snoop_filter.hitSingleSnoops            0                       # Number of snoops hitting in the snoop filter with a single holder of the requested data. (Count)
system.membus.snoop_filter.hitMultiSnoops            0                       # Number of snoops hitting in the snoop filter with multiple (>1) holders of the requested data. (Count)
system.tol2bus.transDist::ReadResp              10367                       # Transaction distribution (Count)
system.tol2bus.transDist::WritebackDirty         1900                       # Transaction distribution (Count)
system.tol2bus.transDist::WritebackClean         8366                       # Transaction distribution (Count)
system.tol2bus.transDist::CleanEvict             1010                       # Transaction distribution (Count)
system.tol2bus.transDist::UpgradeReq                3                       # Transaction distribution (Count)
system.tol2bus.transDist::UpgradeResp               3                       # Transaction distribution (Count)
system.tol2bus.transDist::ReadExReq              1596                       # Transaction distribution (Count)
system.tol2bus.transDist::ReadExResp             1596                       # Transaction distribution (Count)
system.tol2bus.transDist::ReadCleanReq           8881                       # Transaction distribution (Count)
system.tol2bus.transDist::ReadSharedReq          1486                       # Transaction distribution (Count)
system.tol2bus.pktCount_system.cpu.icache.mem_side_port::system.l2.cpu_side_port        26125                       # Packet count per connected requestor and responder (Count)
system.tol2bus.pktCount_system.cpu.dcache.mem_side_port::system.l2.cpu_side_port         8740                       # Packet count per connected requestor and responder (Count)
system.tol2bus.pktCount::total                  34865                       # Packet count per connected requestor and responder (Count)
system.tol2bus.pktSize_system.cpu.icache.mem_side_port::system.l2.cpu_side_port      1103616                       # Cumulative packet size per connected requestor and responder (Byte)
system.tol2bus.pktSize_system.cpu.dcache.mem_side_port::system.l2.cpu_side_port       315136                       # Cumulative packet size per connected requestor and responder (Byte)
system.tol2bus.pktSize::total                 1418752                       # Cumulative packet size per connected requestor and responder (Byte)
system.tol2bus.snoops                             343                       # Total snoops (Count)
system.tol2bus.snoopTraffic                      3904                       # Total snoop traffic (Byte)
system.tol2bus.snoopFanout::samples             12306                       # Request fanout histogram (Count)
system.tol2bus.snoopFanout::mean             0.008126                       # Request fanout histogram (Count)
system.tol2bus.snoopFanout::stdev            0.089782                       # Request fanout histogram (Count)
system.tol2bus.snoopFanout::underflows              0      0.00%      0.00% # Request fanout histogram (Count)
system.tol2bus.snoopFanout::0                   12206     99.19%     99.19% # Request fanout histogram (Count)
system.tol2bus.snoopFanout::1                     100      0.81%    100.00% # Request fanout histogram (Count)
system.tol2bus.snoopFanout::2                       0      0.00%    100.00% # Request fanout histogram (Count)
system.tol2bus.snoopFanout::3                       0      0.00%    100.00% # Request fanout histogram (Count)
system.tol2bus.snoopFanout::4                       0      0.00%    100.00% # Request fanout histogram (Count)
system.tol2bus.snoopFanout::overflows               0      0.00%    100.00% # Request fanout histogram (Count)
system.tol2bus.snoopFanout::min_value               0                       # Request fanout histogram (Count)
system.tol2bus.snoopFanout::max_value               1                       # Request fanout histogram (Count)
system.tol2bus.snoopFanout::total               12306                       # Request fanout histogram (Count)
system.tol2bus.power_state.pwrStateResidencyTicks::UNDEFINED   2044960500                       # Cumulative time (in ticks) in various power states (Tick)
system.tol2bus.reqLayer0.occupancy           21659000                       # Layer occupancy (ticks) (Tick)
system.tol2bus.reqLayer0.utilization              0.0                       # Layer utilization (Ratio)
system.tol2bus.respLayer0.occupancy          13321999                       # Layer occupancy (ticks) (Tick)
system.tol2bus.respLayer0.utilization             0.0                       # Layer utilization (Ratio)
system.tol2bus.respLayer1.occupancy           4624500                       # Layer occupancy (ticks) (Tick)
system.tol2bus.respLayer1.utilization             0.0                       # Layer utilization (Ratio)
system.tol2bus.snoop_filter.totRequests         22902                       # Total number of requests made to the snoop filter. (Count)
system.tol2bus.snoop_filter.hitSingleRequests        10939                       # Number of requests hitting in the snoop filter with a single holder of the requested data. (Count)
system.tol2bus.snoop_filter.hitMultiRequests            5                       # Number of requests hitting in the snoop filter with multiple (>1) holders of the requested data. (Count)
system.tol2bus.snoop_filter.totSnoops              92                       # Total number of snoops made to the snoop filter. (Count)
system.tol2bus.snoop_filter.hitSingleSnoops           92                       # Number of snoops hitting in the snoop filter with a single holder of the requested data. (Count)
system.tol2bus.snoop_filter.hitMultiSnoops            0                       # Number of snoops hitting in the snoop filter with multiple (>1) holders of the requested data. (Count)
system.voltage_domain.voltage                       1                       # Voltage in Volts (Volt)
system.workload.inst.arm                            0                       # number of arm instructions executed (Count)
system.workload.inst.quiesce                        0                       # number of quiesce instructions executed (Count)

---------- End Simulation Statistics   ----------
