
---------- Begin Simulation Statistics ----------
simSeconds                                   0.006141                       # Number of seconds simulated (Second)
simTicks                                   6140786500                       # Number of ticks simulated (Tick)
finalTick                                  6140786500                       # Number of ticks from beginning of simulation (restored from checkpoints and never reset) (Tick)
simFreq                                  1000000000000                       # The number of ticks per simulated second ((Tick/Second))
hostSeconds                                    112.97                       # Real time elapsed on the host (Second)
hostTickRate                                 54356592                       # The number of ticks simulated per host second (ticks/s) ((Tick/Second))
hostMemory                                     678304                       # Number of bytes of host memory used (Byte)
simInsts                                     24069197                       # Number of instructions simulated (Count)
simOps                                       41717496                       # Number of ops (including micro ops) simulated (Count)
hostInstRate                                   213054                       # Simulator instruction rate (inst/s) ((Count/Second))
hostOpRate                                     369272                       # Simulator op (including micro ops) rate (op/s) ((Count/Second))
system.clk_domain.clock                          1000                       # Clock period in ticks (Tick)
system.cpu.numCycles                         12281574                       # Number of cpu cycles simulated (Cycle)
system.cpu.numWorkItemsStarted                      0                       # Number of work items this cpu started (Count)
system.cpu.numWorkItemsCompleted                    0                       # Number of work items this cpu completed (Count)
system.cpu.instsAdded                        42938284                       # Number of instructions added to the IQ (excludes non-spec) (Count)
system.cpu.nonSpecInstsAdded                      501                       # Number of non-speculative instructions added to the IQ (Count)
system.cpu.instsIssued                       42605986                       # Number of instructions issued (Count)
system.cpu.squashedInstsIssued                   1382                       # Number of squashed instructions issued (Count)
system.cpu.squashedInstsExamined              1221267                       # Number of squashed instructions iterated over during squash; mainly for profiling (Count)
system.cpu.squashedOperandsExamined           1443974                       # Number of squashed operands that are examined and possibly removed from graph (Count)
system.cpu.squashedNonSpecRemoved                 464                       # Number of squashed non-spec instructions that were removed (Count)
system.cpu.numIssuedDist::samples            12158311                       # Number of insts issued each cycle (Count)
system.cpu.numIssuedDist::mean               3.504268                       # Number of insts issued each cycle (Count)
system.cpu.numIssuedDist::stdev              2.009084                       # Number of insts issued each cycle (Count)
system.cpu.numIssuedDist::underflows                0      0.00%      0.00% # Number of insts issued each cycle (Count)
system.cpu.numIssuedDist::0                   1360362     11.19%     11.19% # Number of insts issued each cycle (Count)
system.cpu.numIssuedDist::1                    663779      5.46%     16.65% # Number of insts issued each cycle (Count)
system.cpu.numIssuedDist::2                   1522252     12.52%     29.17% # Number of insts issued each cycle (Count)
system.cpu.numIssuedDist::3                   2509040     20.64%     49.80% # Number of insts issued each cycle (Count)
system.cpu.numIssuedDist::4                   2251407     18.52%     68.32% # Number of insts issued each cycle (Count)
system.cpu.numIssuedDist::5                   1771203     14.57%     82.89% # Number of insts issued each cycle (Count)
system.cpu.numIssuedDist::6                   1301500     10.70%     93.59% # Number of insts issued each cycle (Count)
system.cpu.numIssuedDist::7                    530204      4.36%     97.96% # Number of insts issued each cycle (Count)
system.cpu.numIssuedDist::8                    248564      2.04%    100.00% # Number of insts issued each cycle (Count)
system.cpu.numIssuedDist::overflows                 0      0.00%    100.00% # Number of insts issued each cycle (Count)
system.cpu.numIssuedDist::min_value                 0                       # Number of insts issued each cycle (Count)
system.cpu.numIssuedDist::max_value                 8                       # Number of insts issued each cycle (Count)
system.cpu.numIssuedDist::total              12158311                       # Number of insts issued each cycle (Count)
system.cpu.statFuBusy::No_OpClass                   0      0.00%      0.00% # attempts to use FU when none available (Count)
system.cpu.statFuBusy::IntAlu                  479288     70.61%     70.61% # attempts to use FU when none available (Count)
system.cpu.statFuBusy::IntMult                      0      0.00%     70.61% # attempts to use FU when none available (Count)
system.cpu.statFuBusy::IntDiv                       0      0.00%     70.61% # attempts to use FU when none available (Count)
system.cpu.statFuBusy::FloatAdd                     0      0.00%     70.61% # attempts to use FU when none available (Count)
system.cpu.statFuBusy::FloatCmp                     0      0.00%     70.61% # attempts to use FU when none available (Count)
system.cpu.statFuBusy::FloatCvt                     0      0.00%     70.61% # attempts to use FU when none available (Count)
system.cpu.statFuBusy::FloatMult                    0      0.00%     70.61% # attempts to use FU when none available (Count)
system.cpu.statFuBusy::FloatMultAcc                 0      0.00%     70.61% # attempts to use FU when none available (Count)
system.cpu.statFuBusy::FloatDiv                     0      0.00%     70.61% # attempts to use FU when none available (Count)
system.cpu.statFuBusy::FloatMisc                    0      0.00%     70.61% # attempts to use FU when none available (Count)
system.cpu.statFuBusy::FloatSqrt                    0      0.00%     70.61% # attempts to use FU when none available (Count)
system.cpu.statFuBusy::SimdAdd                      0      0.00%     70.61% # attempts to use FU when none available (Count)
system.cpu.statFuBusy::SimdAddAcc                   0      0.00%     70.61% # attempts to use FU when none available (Count)
system.cpu.statFuBusy::SimdAlu                      0      0.00%     70.61% # attempts to use FU when none available (Count)
system.cpu.statFuBusy::SimdCmp                      0      0.00%     70.61% # attempts to use FU when none available (Count)
system.cpu.statFuBusy::SimdCvt                      0      0.00%     70.61% # attempts to use FU when none available (Count)
system.cpu.statFuBusy::SimdMisc                     0      0.00%     70.61% # attempts to use FU when none available (Count)
system.cpu.statFuBusy::SimdMult                     0      0.00%     70.61% # attempts to use FU when none available (Count)
system.cpu.statFuBusy::SimdMultAcc                  0      0.00%     70.61% # attempts to use FU when none available (Count)
system.cpu.statFuBusy::SimdShift                    0      0.00%     70.61% # attempts to use FU when none available (Count)
system.cpu.statFuBusy::SimdShiftAcc                 0      0.00%     70.61% # attempts to use FU when none available (Count)
system.cpu.statFuBusy::SimdDiv                      0      0.00%     70.61% # attempts to use FU when none available (Count)
system.cpu.statFuBusy::SimdSqrt                     0      0.00%     70.61% # attempts to use FU when none available (Count)
system.cpu.statFuBusy::SimdFloatAdd                 0      0.00%     70.61% # attempts to use FU when none available (Count)
system.cpu.statFuBusy::SimdFloatAlu                 0      0.00%     70.61% # attempts to use FU when none available (Count)
system.cpu.statFuBusy::SimdFloatCmp                 0      0.00%     70.61% # attempts to use FU when none available (Count)
system.cpu.statFuBusy::SimdFloatCvt                 0      0.00%     70.61% # attempts to use FU when none available (Count)
system.cpu.statFuBusy::SimdFloatDiv                 0      0.00%     70.61% # attempts to use FU when none available (Count)
system.cpu.statFuBusy::SimdFloatMisc                0      0.00%     70.61% # attempts to use FU when none available (Count)
system.cpu.statFuBusy::SimdFloatMult                0      0.00%     70.61% # attempts to use FU when none available (Count)
system.cpu.statFuBusy::SimdFloatMultAcc             0      0.00%     70.61% # attempts to use FU when none available (Count)
system.cpu.statFuBusy::SimdFloatSqrt                0      0.00%     70.61% # attempts to use FU when none available (Count)
system.cpu.statFuBusy::SimdReduceAdd                0      0.00%     70.61% # attempts to use FU when none available (Count)
system.cpu.statFuBusy::SimdReduceAlu                0      0.00%     70.61% # attempts to use FU when none available (Count)
system.cpu.statFuBusy::SimdReduceCmp                0      0.00%     70.61% # attempts to use FU when none available (Count)
system.cpu.statFuBusy::SimdFloatReduceAdd            0      0.00%     70.61% # attempts to use FU when none available (Count)
system.cpu.statFuBusy::SimdFloatReduceCmp            0      0.00%     70.61% # attempts to use FU when none available (Count)
system.cpu.statFuBusy::SimdAes                      0      0.00%     70.61% # attempts to use FU when none available (Count)
system.cpu.statFuBusy::SimdAesMix                   0      0.00%     70.61% # attempts to use FU when none available (Count)
system.cpu.statFuBusy::SimdSha1Hash                 0      0.00%     70.61% # attempts to use FU when none available (Count)
system.cpu.statFuBusy::SimdSha1Hash2                0      0.00%     70.61% # attempts to use FU when none available (Count)
system.cpu.statFuBusy::SimdSha256Hash               0      0.00%     70.61% # attempts to use FU when none available (Count)
system.cpu.statFuBusy::SimdSha256Hash2              0      0.00%     70.61% # attempts to use FU when none available (Count)
system.cpu.statFuBusy::SimdShaSigma2                0      0.00%     70.61% # attempts to use FU when none available (Count)
system.cpu.statFuBusy::SimdShaSigma3                0      0.00%     70.61% # attempts to use FU when none available (Count)
system.cpu.statFuBusy::SimdPredAlu                  0      0.00%     70.61% # attempts to use FU when none available (Count)
system.cpu.statFuBusy::MemRead                 149100     21.96%     92.57% # attempts to use FU when none available (Count)
system.cpu.statFuBusy::MemWrite                 50430      7.43%    100.00% # attempts to use FU when none available (Count)
system.cpu.statFuBusy::FloatMemRead                 0      0.00%    100.00% # attempts to use FU when none available (Count)
system.cpu.statFuBusy::FloatMemWrite                0      0.00%    100.00% # attempts to use FU when none available (Count)
system.cpu.statFuBusy::IprAccess                    0      0.00%    100.00% # attempts to use FU when none available (Count)
system.cpu.statFuBusy::InstPrefetch                 0      0.00%    100.00% # attempts to use FU when none available (Count)
system.cpu.statIssuedInstType_0::No_OpClass          458      0.00%      0.00% # Number of instructions issued per FU type, per thread (Count)
system.cpu.statIssuedInstType_0::IntAlu      30118560     70.69%     70.69% # Number of instructions issued per FU type, per thread (Count)
system.cpu.statIssuedInstType_0::IntMult        40097      0.09%     70.79% # Number of instructions issued per FU type, per thread (Count)
system.cpu.statIssuedInstType_0::IntDiv           197      0.00%     70.79% # Number of instructions issued per FU type, per thread (Count)
system.cpu.statIssuedInstType_0::FloatAdd            0      0.00%     70.79% # Number of instructions issued per FU type, per thread (Count)
system.cpu.statIssuedInstType_0::FloatCmp            0      0.00%     70.79% # Number of instructions issued per FU type, per thread (Count)
system.cpu.statIssuedInstType_0::FloatCvt            0      0.00%     70.79% # Number of instructions issued per FU type, per thread (Count)
system.cpu.statIssuedInstType_0::FloatMult            0      0.00%     70.79% # Number of instructions issued per FU type, per thread (Count)
system.cpu.statIssuedInstType_0::FloatMultAcc            0      0.00%     70.79% # Number of instructions issued per FU type, per thread (Count)
system.cpu.statIssuedInstType_0::FloatDiv            0      0.00%     70.79% # Number of instructions issued per FU type, per thread (Count)
system.cpu.statIssuedInstType_0::FloatMisc            0      0.00%     70.79% # Number of instructions issued per FU type, per thread (Count)
system.cpu.statIssuedInstType_0::FloatSqrt            0      0.00%     70.79% # Number of instructions issued per FU type, per thread (Count)
system.cpu.statIssuedInstType_0::SimdAdd            0      0.00%     70.79% # Number of instructions issued per FU type, per thread (Count)
system.cpu.statIssuedInstType_0::SimdAddAcc            0      0.00%     70.79% # Number of instructions issued per FU type, per thread (Count)
system.cpu.statIssuedInstType_0::SimdAlu            0      0.00%     70.79% # Number of instructions issued per FU type, per thread (Count)
system.cpu.statIssuedInstType_0::SimdCmp            0      0.00%     70.79% # Number of instructions issued per FU type, per thread (Count)
system.cpu.statIssuedInstType_0::SimdCvt            0      0.00%     70.79% # Number of instructions issued per FU type, per thread (Count)
system.cpu.statIssuedInstType_0::SimdMisc            0      0.00%     70.79% # Number of instructions issued per FU type, per thread (Count)
system.cpu.statIssuedInstType_0::SimdMult            0      0.00%     70.79% # Number of instructions issued per FU type, per thread (Count)
system.cpu.statIssuedInstType_0::SimdMultAcc            0      0.00%     70.79% # Number of instructions issued per FU type, per thread (Count)
system.cpu.statIssuedInstType_0::SimdShift            0      0.00%     70.79% # Number of instructions issued per FU type, per thread (Count)
system.cpu.statIssuedInstType_0::SimdShiftAcc            0      0.00%     70.79% # Number of instructions issued per FU type, per thread (Count)
system.cpu.statIssuedInstType_0::SimdDiv            0      0.00%     70.79% # Number of instructions issued per FU type, per thread (Count)
system.cpu.statIssuedInstType_0::SimdSqrt            0      0.00%     70.79% # Number of instructions issued per FU type, per thread (Count)
system.cpu.statIssuedInstType_0::SimdFloatAdd            0      0.00%     70.79% # Number of instructions issued per FU type, per thread (Count)
system.cpu.statIssuedInstType_0::SimdFloatAlu            0      0.00%     70.79% # Number of instructions issued per FU type, per thread (Count)
system.cpu.statIssuedInstType_0::SimdFloatCmp            0      0.00%     70.79% # Number of instructions issued per FU type, per thread (Count)
system.cpu.statIssuedInstType_0::SimdFloatCvt            0      0.00%     70.79% # Number of instructions issued per FU type, per thread (Count)
system.cpu.statIssuedInstType_0::SimdFloatDiv            0      0.00%     70.79% # Number of instructions issued per FU type, per thread (Count)
system.cpu.statIssuedInstType_0::SimdFloatMisc            0      0.00%     70.79% # Number of instructions issued per FU type, per thread (Count)
system.cpu.statIssuedInstType_0::SimdFloatMult            0      0.00%     70.79% # Number of instructions issued per FU type, per thread (Count)
system.cpu.statIssuedInstType_0::SimdFloatMultAcc            0      0.00%     70.79% # Number of instructions issued per FU type, per thread (Count)
system.cpu.statIssuedInstType_0::SimdFloatSqrt            0      0.00%     70.79% # Number of instructions issued per FU type, per thread (Count)
system.cpu.statIssuedInstType_0::SimdReduceAdd            0      0.00%     70.79% # Number of instructions issued per FU type, per thread (Count)
system.cpu.statIssuedInstType_0::SimdReduceAlu            0      0.00%     70.79% # Number of instructions issued per FU type, per thread (Count)
system.cpu.statIssuedInstType_0::SimdReduceCmp            0      0.00%     70.79% # Number of instructions issued per FU type, per thread (Count)
system.cpu.statIssuedInstType_0::SimdFloatReduceAdd            0      0.00%     70.79% # Number of instructions issued per FU type, per thread (Count)
system.cpu.statIssuedInstType_0::SimdFloatReduceCmp            0      0.00%     70.79% # Number of instructions issued per FU type, per thread (Count)
system.cpu.statIssuedInstType_0::SimdAes            0      0.00%     70.79% # Number of instructions issued per FU type, per thread (Count)
system.cpu.statIssuedInstType_0::SimdAesMix            0      0.00%     70.79% # Number of instructions issued per FU type, per thread (Count)
system.cpu.statIssuedInstType_0::SimdSha1Hash            0      0.00%     70.79% # Number of instructions issued per FU type, per thread (Count)
system.cpu.statIssuedInstType_0::SimdSha1Hash2            0      0.00%     70.79% # Number of instructions issued per FU type, per thread (Count)
system.cpu.statIssuedInstType_0::SimdSha256Hash            0      0.00%     70.79% # Number of instructions issued per FU type, per thread (Count)
system.cpu.statIssuedInstType_0::SimdSha256Hash2            0      0.00%     70.79% # Number of instructions issued per FU type, per thread (Count)
system.cpu.statIssuedInstType_0::SimdShaSigma2            0      0.00%     70.79% # Number of instructions issued per FU type, per thread (Count)
system.cpu.statIssuedInstType_0::SimdShaSigma3            0      0.00%     70.79% # Number of instructions issued per FU type, per thread (Count)
system.cpu.statIssuedInstType_0::SimdPredAlu            0      0.00%     70.79% # Number of instructions issued per FU type, per thread (Count)
system.cpu.statIssuedInstType_0::MemRead      7459980     17.51%     88.30% # Number of instructions issued per FU type, per thread (Count)
system.cpu.statIssuedInstType_0::MemWrite      4986694     11.70%    100.00% # Number of instructions issued per FU type, per thread (Count)
system.cpu.statIssuedInstType_0::FloatMemRead            0      0.00%    100.00% # Number of instructions issued per FU type, per thread (Count)
system.cpu.statIssuedInstType_0::FloatMemWrite            0      0.00%    100.00% # Number of instructions issued per FU type, per thread (Count)
system.cpu.statIssuedInstType_0::IprAccess            0      0.00%    100.00% # Number of instructions issued per FU type, per thread (Count)
system.cpu.statIssuedInstType_0::InstPrefetch            0      0.00%    100.00% # Number of instructions issued per FU type, per thread (Count)
system.cpu.statIssuedInstType_0::total       42605986                       # Number of instructions issued per FU type, per thread (Count)
system.cpu.issueRate                         3.469098                       # Inst issue rate ((Count/Cycle))
system.cpu.fuBusy                              678818                       # FU busy when requested (Count)
system.cpu.fuBusyRate                        0.015932                       # FU busy rate (busy events/executed inst) ((Count/Count))
system.cpu.intInstQueueReads                 98050483                       # Number of integer instruction queue reads (Count)
system.cpu.intInstQueueWrites                44160965                       # Number of integer instruction queue writes (Count)
system.cpu.intInstQueueWakeupAccesses        42491666                       # Number of integer instruction queue wakeup accesses (Count)
system.cpu.fpInstQueueReads                         0                       # Number of floating instruction queue reads (Count)
system.cpu.fpInstQueueWrites                        0                       # Number of floating instruction queue writes (Count)
system.cpu.fpInstQueueWakeupAccesses                0                       # Number of floating instruction queue wakeup accesses (Count)
system.cpu.vecInstQueueReads                        0                       # Number of vector instruction queue reads (Count)
system.cpu.vecInstQueueWrites                       0                       # Number of vector instruction queue writes (Count)
system.cpu.vecInstQueueWakeupAccesses               0                       # Number of vector instruction queue wakeup accesses (Count)
system.cpu.intAluAccesses                    43284346                       # Number of integer alu accesses (Count)
system.cpu.fpAluAccesses                            0                       # Number of floating point alu accesses (Count)
system.cpu.vecAluAccesses                           0                       # Number of vector alu accesses (Count)
system.cpu.idleCycles                               0                       # Number of cycles IEW is idle (Cycle)
system.cpu.squashCycles                         29817                       # Number of cycles IEW is squashing (Cycle)
system.cpu.blockCycles                         279718                       # Number of cycles IEW is blocking (Cycle)
system.cpu.unblockCycles                        13170                       # Number of cycles IEW is unblocking (Cycle)
system.cpu.dispatchedInsts                   42938785                       # Number of instructions dispatched to IQ (Count)
system.cpu.dispSquashedInsts                      316                       # Number of squashed instructions skipped by dispatch (Count)
system.cpu.dispLoadInsts                      7514976                       # Number of dispatched load instructions (Count)
system.cpu.dispStoreInsts                     5078748                       # Number of dispatched store instructions (Count)
system.cpu.dispNonSpecInsts                       186                       # Number of dispatched non-speculative instructions (Count)
system.cpu.iqFullEvents                          1537                       # Number of times the IQ has become full, causing a stall (Count)
system.cpu.lsqFullEvents                        10567                       # Number of times the LSQ has become full, causing a stall (Count)
system.cpu.memOrderViolationEvents                948                       # Number of memory order violations (Count)
system.cpu.predictedTakenIncorrect              10720                       # Number of branches that were predicted taken incorrectly (Count)
system.cpu.predictedNotTakenIncorrect           20149                       # Number of branches that were predicted not taken incorrectly (Count)
system.cpu.branchMispredicts                    30869                       # Number of branch mispredicts detected at execute (Count)
system.cpu.numInsts                          42537539                       # Number of executed instructions (Count)
system.cpu.numLoadInsts                       7452222                       # Number of load instructions executed (Count)
system.cpu.numSquashedInsts                     68447                       # Number of squashed instructions skipped in execute (Count)
system.cpu.numSwp                                   0                       # Number of swp insts executed (Count)
system.cpu.numNop                                   0                       # Number of nop insts executed (Count)
system.cpu.numRefs                           12411768                       # Number of memory reference insts executed (Count)
system.cpu.numBranches                        4687598                       # Number of branches executed (Count)
system.cpu.numStoreInsts                      4959546                       # Number of stores executed (Count)
system.cpu.numRate                           3.463525                       # Inst execution rate ((Count/Cycle))
system.cpu.instsToCommit                     42516371                       # Cumulative count of insts sent to commit (Count)
system.cpu.writebackCount                    42491666                       # Cumulative count of insts written-back (Count)
system.cpu.producerInst                      29096725                       # Number of instructions producing a value (Count)
system.cpu.consumerInst                      49246856                       # Number of instructions consuming a value (Count)
system.cpu.wbRate                            3.459790                       # Insts written-back per cycle ((Count/Cycle))
system.cpu.wbFanout                          0.590834                       # Average fanout of values written-back ((Count/Count))
system.cpu.timesIdled                            1129                       # Number of times that the entire CPU went into an idle state and unscheduled itself (Count)
system.cpu.idleCycles                          123263                       # Total number of cycles that the CPU has spent unscheduled due to idling (Cycle)
system.cpu.committedInsts                    24069197                       # Number of Instructions Simulated (Count)
system.cpu.committedOps                      41717496                       # Number of Ops (including micro ops) Simulated (Count)
system.cpu.cpi                               0.510261                       # CPI: Cycles Per Instruction ((Cycle/Count))
system.cpu.totalCpi                          0.510261                       # CPI: Total CPI of All Threads ((Cycle/Count))
system.cpu.ipc                               1.959781                       # IPC: Instructions Per Cycle ((Count/Cycle))
system.cpu.totalIpc                          1.959781                       # IPC: Total IPC of All Threads ((Count/Cycle))
system.cpu.intRegfileReads                   68320419                       # Number of integer regfile reads (Count)
system.cpu.intRegfileWrites                  32905047                       # Number of integer regfile writes (Count)
system.cpu.ccRegfileReads                    18272777                       # number of cc regfile reads (Count)
system.cpu.ccRegfileWrites                   14091586                       # number of cc regfile writes (Count)
system.cpu.miscRegfileReads                  20532079                       # number of misc regfile reads (Count)
system.cpu.miscRegfileWrites                        6                       # number of misc regfile writes (Count)
system.cpu.MemDepUnit__0.insertedLoads        7514976                       # Number of loads inserted to the mem dependence unit. (Count)
system.cpu.MemDepUnit__0.insertedStores       5078748                       # Number of stores inserted to the mem dependence unit. (Count)
system.cpu.MemDepUnit__0.conflictingLoads      1146485                       # Number of conflicting loads. (Count)
system.cpu.MemDepUnit__0.conflictingStores       391094                       # Number of conflicting stores. (Count)
system.cpu.MemDepUnit__1.insertedLoads              0                       # Number of loads inserted to the mem dependence unit. (Count)
system.cpu.MemDepUnit__1.insertedStores             0                       # Number of stores inserted to the mem dependence unit. (Count)
system.cpu.MemDepUnit__1.conflictingLoads            0                       # Number of conflicting loads. (Count)
system.cpu.MemDepUnit__1.conflictingStores            0                       # Number of conflicting stores. (Count)
system.cpu.MemDepUnit__2.insertedLoads              0                       # Number of loads inserted to the mem dependence unit. (Count)
system.cpu.MemDepUnit__2.insertedStores             0                       # Number of stores inserted to the mem dependence unit. (Count)
system.cpu.MemDepUnit__2.conflictingLoads            0                       # Number of conflicting loads. (Count)
system.cpu.MemDepUnit__2.conflictingStores            0                       # Number of conflicting stores. (Count)
system.cpu.MemDepUnit__3.insertedLoads              0                       # Number of loads inserted to the mem dependence unit. (Count)
system.cpu.MemDepUnit__3.insertedStores             0                       # Number of stores inserted to the mem dependence unit. (Count)
system.cpu.MemDepUnit__3.conflictingLoads            0                       # Number of conflicting loads. (Count)
system.cpu.MemDepUnit__3.conflictingStores            0                       # Number of conflicting stores. (Count)
system.cpu.branchPred.lookups                 4783823                       # Number of BP lookups (Count)
system.cpu.branchPred.condPredicted           2362439                       # Number of conditional branches predicted (Count)
system.cpu.branchPred.condIncorrect             31657                       # Number of conditional branches incorrect (Count)
system.cpu.branchPred.BTBLookups              2108181                       # Number of BTB lookups (Count)
system.cpu.branchPred.BTBHits                 2103876                       # Number of BTB hits (Count)
system.cpu.branchPred.BTBHitRatio            0.997958                       # BTB Hit Ratio (Ratio)
system.cpu.branchPred.RASUsed                 1015886                       # Number of times the RAS was used to get a target. (Count)
system.cpu.branchPred.RASIncorrect                 42                       # Number of incorrect RAS predictions. (Count)
system.cpu.branchPred.indirectLookups          439749                       # Number of indirect predictor lookups. (Count)
system.cpu.branchPred.indirectHits             436483                       # Number of indirect target hits. (Count)
system.cpu.branchPred.indirectMisses             3266                       # Number of indirect misses. (Count)
system.cpu.branchPred.indirectMispredicted         1148                       # Number of mispredicted indirect branches. (Count)
system.cpu.branchPred.perceptron.lookups            0                       # Number of BP lookups (Count)
system.cpu.branchPred.perceptron.condPredicted            0                       # Number of conditional branches predicted (Count)
system.cpu.branchPred.perceptron.condIncorrect            0                       # Number of conditional branches incorrect (Count)
system.cpu.branchPred.perceptron.BTBLookups            0                       # Number of BTB lookups (Count)
system.cpu.branchPred.perceptron.BTBHits            0                       # Number of BTB hits (Count)
system.cpu.branchPred.perceptron.BTBHitRatio          nan                       # BTB Hit Ratio (Ratio)
system.cpu.branchPred.perceptron.RASUsed            0                       # Number of times the RAS was used to get a target. (Count)
system.cpu.branchPred.perceptron.RASIncorrect            0                       # Number of incorrect RAS predictions. (Count)
system.cpu.branchPred.perceptron.indirectLookups            0                       # Number of indirect predictor lookups. (Count)
system.cpu.branchPred.perceptron.indirectHits            0                       # Number of indirect target hits. (Count)
system.cpu.branchPred.perceptron.indirectMisses            0                       # Number of indirect misses. (Count)
system.cpu.branchPred.perceptron.indirectMispredicted            0                       # Number of mispredicted indirect branches. (Count)
system.cpu.branchPred.tage.lookups                  0                       # Number of BP lookups (Count)
system.cpu.branchPred.tage.condPredicted            0                       # Number of conditional branches predicted (Count)
system.cpu.branchPred.tage.condIncorrect            0                       # Number of conditional branches incorrect (Count)
system.cpu.branchPred.tage.BTBLookups               0                       # Number of BTB lookups (Count)
system.cpu.branchPred.tage.BTBHits                  0                       # Number of BTB hits (Count)
system.cpu.branchPred.tage.BTBHitRatio            nan                       # BTB Hit Ratio (Ratio)
system.cpu.branchPred.tage.RASUsed                  0                       # Number of times the RAS was used to get a target. (Count)
system.cpu.branchPred.tage.RASIncorrect             0                       # Number of incorrect RAS predictions. (Count)
system.cpu.branchPred.tage.indirectLookups            0                       # Number of indirect predictor lookups. (Count)
system.cpu.branchPred.tage.indirectHits             0                       # Number of indirect target hits. (Count)
system.cpu.branchPred.tage.indirectMisses            0                       # Number of indirect misses. (Count)
system.cpu.branchPred.tage.indirectMispredicted            0                       # Number of mispredicted indirect branches. (Count)
system.cpu.branchPred.tage.tage.longestMatchProviderCorrect       717049                       # Number of times TAGE Longest Match is the provider and the prediction is correct (Count)
system.cpu.branchPred.tage.tage.altMatchProviderCorrect         4533                       # Number of times TAGE Alt Match is the provider and the prediction is correct (Count)
system.cpu.branchPred.tage.tage.bimodalAltMatchProviderCorrect          748                       # Number of times TAGE Alt Match is the bimodal and it is the provider and the prediction is correct (Count)
system.cpu.branchPred.tage.tage.bimodalProviderCorrect      1548815                       # Number of times there are no hits on the TAGE tables and the bimodal prediction is correct (Count)
system.cpu.branchPred.tage.tage.longestMatchProviderWrong        21778                       # Number of times TAGE Longest Match is the provider and the prediction is wrong (Count)
system.cpu.branchPred.tage.tage.altMatchProviderWrong         3340                       # Number of times TAGE Alt Match is the provider and the prediction is wrong (Count)
system.cpu.branchPred.tage.tage.bimodalAltMatchProviderWrong          293                       # Number of times TAGE Alt Match is the bimodal and it is the provider and the prediction is wrong (Count)
system.cpu.branchPred.tage.tage.bimodalProviderWrong         1631                       # Number of times there are no hits on the TAGE tables and the bimodal prediction is wrong (Count)
system.cpu.branchPred.tage.tage.altMatchProviderWouldHaveHit         4928                       # Number of times TAGE Longest Match is the provider, the prediction is wrong and Alt Match prediction was correct (Count)
system.cpu.branchPred.tage.tage.longestMatchProviderWouldHaveHit         1729                       # Number of times TAGE Alt Match is the provider, the prediction is wrong and Longest Match prediction was correct (Count)
system.cpu.branchPred.tage.tage.longestMatchProvider::0            0                       # TAGE provider for longest match (Count)
system.cpu.branchPred.tage.tage.longestMatchProvider::1       439987                       # TAGE provider for longest match (Count)
system.cpu.branchPred.tage.tage.longestMatchProvider::2        42722                       # TAGE provider for longest match (Count)
system.cpu.branchPred.tage.tage.longestMatchProvider::3        17764                       # TAGE provider for longest match (Count)
system.cpu.branchPred.tage.tage.longestMatchProvider::4         9926                       # TAGE provider for longest match (Count)
system.cpu.branchPred.tage.tage.longestMatchProvider::5        15066                       # TAGE provider for longest match (Count)
system.cpu.branchPred.tage.tage.longestMatchProvider::6         6581                       # TAGE provider for longest match (Count)
system.cpu.branchPred.tage.tage.longestMatchProvider::7         8876                       # TAGE provider for longest match (Count)
system.cpu.branchPred.tage.tage.longestMatchProvider::8        31604                       # TAGE provider for longest match (Count)
system.cpu.branchPred.tage.tage.longestMatchProvider::9       174174                       # TAGE provider for longest match (Count)
system.cpu.branchPred.tage.tage.altMatchProvider::0       480287                       # TAGE provider for alt match (Count)
system.cpu.branchPred.tage.tage.altMatchProvider::1        16697                       # TAGE provider for alt match (Count)
system.cpu.branchPred.tage.tage.altMatchProvider::2        10546                       # TAGE provider for alt match (Count)
system.cpu.branchPred.tage.tage.altMatchProvider::3         6166                       # TAGE provider for alt match (Count)
system.cpu.branchPred.tage.tage.altMatchProvider::4        14055                       # TAGE provider for alt match (Count)
system.cpu.branchPred.tage.tage.altMatchProvider::5        14597                       # TAGE provider for alt match (Count)
system.cpu.branchPred.tage.tage.altMatchProvider::6         6153                       # TAGE provider for alt match (Count)
system.cpu.branchPred.tage.tage.altMatchProvider::7        37833                       # TAGE provider for alt match (Count)
system.cpu.branchPred.tage.tage.altMatchProvider::8       160366                       # TAGE provider for alt match (Count)
system.cpu.branchPred.tage.tage.altMatchProvider::9            0                       # TAGE provider for alt match (Count)
system.cpu.commit.commitSquashedInsts         1220554                       # The number of squashed insts skipped by commit (Count)
system.cpu.commit.commitNonSpecStalls              37                       # The number of times commit has been forced to stall to communicate backwards (Count)
system.cpu.commit.branchMispredicts             28979                       # The number of times a branch was mispredicted (Count)
system.cpu.commit.numCommittedDist::samples     11987262                       # Number of insts commited each cycle (Count)
system.cpu.commit.numCommittedDist::mean     3.480152                       # Number of insts commited each cycle (Count)
system.cpu.commit.numCommittedDist::stdev     2.901516                       # Number of insts commited each cycle (Count)
system.cpu.commit.numCommittedDist::underflows            0      0.00%      0.00% # Number of insts commited each cycle (Count)
system.cpu.commit.numCommittedDist::0         2020407     16.85%     16.85% # Number of insts commited each cycle (Count)
system.cpu.commit.numCommittedDist::1         2401617     20.03%     36.89% # Number of insts commited each cycle (Count)
system.cpu.commit.numCommittedDist::2          987391      8.24%     45.13% # Number of insts commited each cycle (Count)
system.cpu.commit.numCommittedDist::3         1657909     13.83%     58.96% # Number of insts commited each cycle (Count)
system.cpu.commit.numCommittedDist::4          855023      7.13%     66.09% # Number of insts commited each cycle (Count)
system.cpu.commit.numCommittedDist::5          570671      4.76%     70.85% # Number of insts commited each cycle (Count)
system.cpu.commit.numCommittedDist::6          575422      4.80%     75.65% # Number of insts commited each cycle (Count)
system.cpu.commit.numCommittedDist::7          709185      5.92%     81.57% # Number of insts commited each cycle (Count)
system.cpu.commit.numCommittedDist::8         2209637     18.43%    100.00% # Number of insts commited each cycle (Count)
system.cpu.commit.numCommittedDist::overflows            0      0.00%    100.00% # Number of insts commited each cycle (Count)
system.cpu.commit.numCommittedDist::min_value            0                       # Number of insts commited each cycle (Count)
system.cpu.commit.numCommittedDist::max_value            8                       # Number of insts commited each cycle (Count)
system.cpu.commit.numCommittedDist::total     11987262                       # Number of insts commited each cycle (Count)
system.cpu.commit.instsCommitted             24069197                       # Number of instructions committed (Count)
system.cpu.commit.opsCommitted               41717496                       # Number of ops (including micro ops) committed (Count)
system.cpu.commit.memRefs                    12125666                       # Number of memory references committed (Count)
system.cpu.commit.loads                       7303822                       # Number of loads committed (Count)
system.cpu.commit.amos                              0                       # Number of atomic instructions committed (Count)
system.cpu.commit.membars                          22                       # Number of memory barriers committed (Count)
system.cpu.commit.branches                    4620388                       # Number of branches committed (Count)
system.cpu.commit.vectorInstructions                0                       # Number of committed Vector instructions. (Count)
system.cpu.commit.floating                          0                       # Number of committed floating point instructions. (Count)
system.cpu.commit.integer                    41714969                       # Number of committed integer instructions. (Count)
system.cpu.commit.functionCalls               1000498                       # Number of function calls committed. (Count)
system.cpu.commit.committedInstType_0::No_OpClass           53      0.00%      0.00% # Class of committed instruction (Count)
system.cpu.commit.committedInstType_0::IntAlu     29551499     70.84%     70.84% # Class of committed instruction (Count)
system.cpu.commit.committedInstType_0::IntMult        40092      0.10%     70.93% # Class of committed instruction (Count)
system.cpu.commit.committedInstType_0::IntDiv          186      0.00%     70.93% # Class of committed instruction (Count)
system.cpu.commit.committedInstType_0::FloatAdd            0      0.00%     70.93% # Class of committed instruction (Count)
system.cpu.commit.committedInstType_0::FloatCmp            0      0.00%     70.93% # Class of committed instruction (Count)
system.cpu.commit.committedInstType_0::FloatCvt            0      0.00%     70.93% # Class of committed instruction (Count)
system.cpu.commit.committedInstType_0::FloatMult            0      0.00%     70.93% # Class of committed instruction (Count)
system.cpu.commit.committedInstType_0::FloatMultAcc            0      0.00%     70.93% # Class of committed instruction (Count)
system.cpu.commit.committedInstType_0::FloatDiv            0      0.00%     70.93% # Class of committed instruction (Count)
system.cpu.commit.committedInstType_0::FloatMisc            0      0.00%     70.93% # Class of committed instruction (Count)
system.cpu.commit.committedInstType_0::FloatSqrt            0      0.00%     70.93% # Class of committed instruction (Count)
system.cpu.commit.committedInstType_0::SimdAdd            0      0.00%     70.93% # Class of committed instruction (Count)
system.cpu.commit.committedInstType_0::SimdAddAcc            0      0.00%     70.93% # Class of committed instruction (Count)
system.cpu.commit.committedInstType_0::SimdAlu            0      0.00%     70.93% # Class of committed instruction (Count)
system.cpu.commit.committedInstType_0::SimdCmp            0      0.00%     70.93% # Class of committed instruction (Count)
system.cpu.commit.committedInstType_0::SimdCvt            0      0.00%     70.93% # Class of committed instruction (Count)
system.cpu.commit.committedInstType_0::SimdMisc            0      0.00%     70.93% # Class of committed instruction (Count)
system.cpu.commit.committedInstType_0::SimdMult            0      0.00%     70.93% # Class of committed instruction (Count)
system.cpu.commit.committedInstType_0::SimdMultAcc            0      0.00%     70.93% # Class of committed instruction (Count)
system.cpu.commit.committedInstType_0::SimdShift            0      0.00%     70.93% # Class of committed instruction (Count)
system.cpu.commit.committedInstType_0::SimdShiftAcc            0      0.00%     70.93% # Class of committed instruction (Count)
system.cpu.commit.committedInstType_0::SimdDiv            0      0.00%     70.93% # Class of committed instruction (Count)
system.cpu.commit.committedInstType_0::SimdSqrt            0      0.00%     70.93% # Class of committed instruction (Count)
system.cpu.commit.committedInstType_0::SimdFloatAdd            0      0.00%     70.93% # Class of committed instruction (Count)
system.cpu.commit.committedInstType_0::SimdFloatAlu            0      0.00%     70.93% # Class of committed instruction (Count)
system.cpu.commit.committedInstType_0::SimdFloatCmp            0      0.00%     70.93% # Class of committed instruction (Count)
system.cpu.commit.committedInstType_0::SimdFloatCvt            0      0.00%     70.93% # Class of committed instruction (Count)
system.cpu.commit.committedInstType_0::SimdFloatDiv            0      0.00%     70.93% # Class of committed instruction (Count)
system.cpu.commit.committedInstType_0::SimdFloatMisc            0      0.00%     70.93% # Class of committed instruction (Count)
system.cpu.commit.committedInstType_0::SimdFloatMult            0      0.00%     70.93% # Class of committed instruction (Count)
system.cpu.commit.committedInstType_0::SimdFloatMultAcc            0      0.00%     70.93% # Class of committed instruction (Count)
system.cpu.commit.committedInstType_0::SimdFloatSqrt            0      0.00%     70.93% # Class of committed instruction (Count)
system.cpu.commit.committedInstType_0::SimdReduceAdd            0      0.00%     70.93% # Class of committed instruction (Count)
system.cpu.commit.committedInstType_0::SimdReduceAlu            0      0.00%     70.93% # Class of committed instruction (Count)
system.cpu.commit.committedInstType_0::SimdReduceCmp            0      0.00%     70.93% # Class of committed instruction (Count)
system.cpu.commit.committedInstType_0::SimdFloatReduceAdd            0      0.00%     70.93% # Class of committed instruction (Count)
system.cpu.commit.committedInstType_0::SimdFloatReduceCmp            0      0.00%     70.93% # Class of committed instruction (Count)
system.cpu.commit.committedInstType_0::SimdAes            0      0.00%     70.93% # Class of committed instruction (Count)
system.cpu.commit.committedInstType_0::SimdAesMix            0      0.00%     70.93% # Class of committed instruction (Count)
system.cpu.commit.committedInstType_0::SimdSha1Hash            0      0.00%     70.93% # Class of committed instruction (Count)
system.cpu.commit.committedInstType_0::SimdSha1Hash2            0      0.00%     70.93% # Class of committed instruction (Count)
system.cpu.commit.committedInstType_0::SimdSha256Hash            0      0.00%     70.93% # Class of committed instruction (Count)
system.cpu.commit.committedInstType_0::SimdSha256Hash2            0      0.00%     70.93% # Class of committed instruction (Count)
system.cpu.commit.committedInstType_0::SimdShaSigma2            0      0.00%     70.93% # Class of committed instruction (Count)
system.cpu.commit.committedInstType_0::SimdShaSigma3            0      0.00%     70.93% # Class of committed instruction (Count)
system.cpu.commit.committedInstType_0::SimdPredAlu            0      0.00%     70.93% # Class of committed instruction (Count)
system.cpu.commit.committedInstType_0::MemRead      7303822     17.51%     88.44% # Class of committed instruction (Count)
system.cpu.commit.committedInstType_0::MemWrite      4821844     11.56%    100.00% # Class of committed instruction (Count)
system.cpu.commit.committedInstType_0::FloatMemRead            0      0.00%    100.00% # Class of committed instruction (Count)
system.cpu.commit.committedInstType_0::FloatMemWrite            0      0.00%    100.00% # Class of committed instruction (Count)
system.cpu.commit.committedInstType_0::IprAccess            0      0.00%    100.00% # Class of committed instruction (Count)
system.cpu.commit.committedInstType_0::InstPrefetch            0      0.00%    100.00% # Class of committed instruction (Count)
system.cpu.commit.committedInstType_0::total     41717496                       # Class of committed instruction (Count)
system.cpu.commit.commitEligibleSamples       2209637                       # number cycles where commit BW limit reached (Cycle)
system.cpu.dcache.demandHits::cpu.data        7853921                       # number of demand (read+write) hits (Count)
system.cpu.dcache.demandHits::total           7853921                       # number of demand (read+write) hits (Count)
system.cpu.dcache.overallHits::cpu.data       7853921                       # number of overall hits (Count)
system.cpu.dcache.overallHits::total          7853921                       # number of overall hits (Count)
system.cpu.dcache.demandMisses::cpu.data        44779                       # number of demand (read+write) misses (Count)
system.cpu.dcache.demandMisses::total           44779                       # number of demand (read+write) misses (Count)
system.cpu.dcache.overallMisses::cpu.data        44779                       # number of overall misses (Count)
system.cpu.dcache.overallMisses::total          44779                       # number of overall misses (Count)
system.cpu.dcache.demandMissLatency::cpu.data   1147937498                       # number of demand (read+write) miss ticks (Tick)
system.cpu.dcache.demandMissLatency::total   1147937498                       # number of demand (read+write) miss ticks (Tick)
system.cpu.dcache.overallMissLatency::cpu.data   1147937498                       # number of overall miss ticks (Tick)
system.cpu.dcache.overallMissLatency::total   1147937498                       # number of overall miss ticks (Tick)
system.cpu.dcache.demandAccesses::cpu.data      7898700                       # number of demand (read+write) accesses (Count)
system.cpu.dcache.demandAccesses::total       7898700                       # number of demand (read+write) accesses (Count)
system.cpu.dcache.overallAccesses::cpu.data      7898700                       # number of overall (read+write) accesses (Count)
system.cpu.dcache.overallAccesses::total      7898700                       # number of overall (read+write) accesses (Count)
system.cpu.dcache.demandMissRate::cpu.data     0.005669                       # miss rate for demand accesses (Ratio)
system.cpu.dcache.demandMissRate::total      0.005669                       # miss rate for demand accesses (Ratio)
system.cpu.dcache.overallMissRate::cpu.data     0.005669                       # miss rate for overall accesses (Ratio)
system.cpu.dcache.overallMissRate::total     0.005669                       # miss rate for overall accesses (Ratio)
system.cpu.dcache.demandAvgMissLatency::cpu.data 25635.621564                       # average overall miss latency ((Cycle/Count))
system.cpu.dcache.demandAvgMissLatency::total 25635.621564                       # average overall miss latency ((Cycle/Count))
system.cpu.dcache.overallAvgMissLatency::cpu.data 25635.621564                       # average overall miss latency ((Cycle/Count))
system.cpu.dcache.overallAvgMissLatency::total 25635.621564                       # average overall miss latency ((Cycle/Count))
system.cpu.dcache.blockedCycles::no_mshrs          314                       # number of cycles access was blocked (Cycle)
system.cpu.dcache.blockedCycles::no_targets            0                       # number of cycles access was blocked (Cycle)
system.cpu.dcache.blockedCauses::no_mshrs           10                       # number of times access was blocked (Count)
system.cpu.dcache.blockedCauses::no_targets            0                       # number of times access was blocked (Count)
system.cpu.dcache.avgBlocked::no_mshrs      31.400000                       # average number of cycles each access was blocked ((Cycle/Count))
system.cpu.dcache.avgBlocked::no_targets          nan                       # average number of cycles each access was blocked ((Cycle/Count))
system.cpu.dcache.writebacks::writebacks         5639                       # number of writebacks (Count)
system.cpu.dcache.writebacks::total              5639                       # number of writebacks (Count)
system.cpu.dcache.demandMshrHits::cpu.data        10865                       # number of demand (read+write) MSHR hits (Count)
system.cpu.dcache.demandMshrHits::total         10865                       # number of demand (read+write) MSHR hits (Count)
system.cpu.dcache.overallMshrHits::cpu.data        10865                       # number of overall MSHR hits (Count)
system.cpu.dcache.overallMshrHits::total        10865                       # number of overall MSHR hits (Count)
system.cpu.dcache.demandMshrMisses::cpu.data        33914                       # number of demand (read+write) MSHR misses (Count)
system.cpu.dcache.demandMshrMisses::total        33914                       # number of demand (read+write) MSHR misses (Count)
system.cpu.dcache.overallMshrMisses::cpu.data        33914                       # number of overall MSHR misses (Count)
system.cpu.dcache.overallMshrMisses::total        33914                       # number of overall MSHR misses (Count)
system.cpu.dcache.demandMshrMissLatency::cpu.data    759381999                       # number of demand (read+write) MSHR miss ticks (Tick)
system.cpu.dcache.demandMshrMissLatency::total    759381999                       # number of demand (read+write) MSHR miss ticks (Tick)
system.cpu.dcache.overallMshrMissLatency::cpu.data    759381999                       # number of overall MSHR miss ticks (Tick)
system.cpu.dcache.overallMshrMissLatency::total    759381999                       # number of overall MSHR miss ticks (Tick)
system.cpu.dcache.demandMshrMissRate::cpu.data     0.004294                       # mshr miss ratio for demand accesses (Ratio)
system.cpu.dcache.demandMshrMissRate::total     0.004294                       # mshr miss ratio for demand accesses (Ratio)
system.cpu.dcache.overallMshrMissRate::cpu.data     0.004294                       # mshr miss ratio for overall accesses (Ratio)
system.cpu.dcache.overallMshrMissRate::total     0.004294                       # mshr miss ratio for overall accesses (Ratio)
system.cpu.dcache.demandAvgMshrMissLatency::cpu.data 22391.401751                       # average overall mshr miss latency ((Cycle/Count))
system.cpu.dcache.demandAvgMshrMissLatency::total 22391.401751                       # average overall mshr miss latency ((Cycle/Count))
system.cpu.dcache.overallAvgMshrMissLatency::cpu.data 22391.401751                       # average overall mshr miss latency ((Cycle/Count))
system.cpu.dcache.overallAvgMshrMissLatency::total 22391.401751                       # average overall mshr miss latency ((Cycle/Count))
system.cpu.dcache.replacements                  33395                       # number of replacements (Count)
system.cpu.dcache.ReadReq.hits::cpu.data      3033771                       # number of ReadReq hits (Count)
system.cpu.dcache.ReadReq.hits::total         3033771                       # number of ReadReq hits (Count)
system.cpu.dcache.ReadReq.misses::cpu.data        43069                       # number of ReadReq misses (Count)
system.cpu.dcache.ReadReq.misses::total         43069                       # number of ReadReq misses (Count)
system.cpu.dcache.ReadReq.missLatency::cpu.data   1036275000                       # number of ReadReq miss ticks (Tick)
system.cpu.dcache.ReadReq.missLatency::total   1036275000                       # number of ReadReq miss ticks (Tick)
system.cpu.dcache.ReadReq.accesses::cpu.data      3076840                       # number of ReadReq accesses(hits+misses) (Count)
system.cpu.dcache.ReadReq.accesses::total      3076840                       # number of ReadReq accesses(hits+misses) (Count)
system.cpu.dcache.ReadReq.missRate::cpu.data     0.013998                       # miss rate for ReadReq accesses (Ratio)
system.cpu.dcache.ReadReq.missRate::total     0.013998                       # miss rate for ReadReq accesses (Ratio)
system.cpu.dcache.ReadReq.avgMissLatency::cpu.data 24060.809399                       # average ReadReq miss latency ((Tick/Count))
system.cpu.dcache.ReadReq.avgMissLatency::total 24060.809399                       # average ReadReq miss latency ((Tick/Count))
system.cpu.dcache.ReadReq.mshrHits::cpu.data        10858                       # number of ReadReq MSHR hits (Count)
system.cpu.dcache.ReadReq.mshrHits::total        10858                       # number of ReadReq MSHR hits (Count)
system.cpu.dcache.ReadReq.mshrMisses::cpu.data        32211                       # number of ReadReq MSHR misses (Count)
system.cpu.dcache.ReadReq.mshrMisses::total        32211                       # number of ReadReq MSHR misses (Count)
system.cpu.dcache.ReadReq.mshrMissLatency::cpu.data    649711000                       # number of ReadReq MSHR miss ticks (Tick)
system.cpu.dcache.ReadReq.mshrMissLatency::total    649711000                       # number of ReadReq MSHR miss ticks (Tick)
system.cpu.dcache.ReadReq.mshrMissRate::cpu.data     0.010469                       # mshr miss rate for ReadReq accesses (Ratio)
system.cpu.dcache.ReadReq.mshrMissRate::total     0.010469                       # mshr miss rate for ReadReq accesses (Ratio)
system.cpu.dcache.ReadReq.avgMshrMissLatency::cpu.data 20170.469715                       # average ReadReq mshr miss latency ((Tick/Count))
system.cpu.dcache.ReadReq.avgMshrMissLatency::total 20170.469715                       # average ReadReq mshr miss latency ((Tick/Count))
system.cpu.dcache.WriteReq.hits::cpu.data      4820150                       # number of WriteReq hits (Count)
system.cpu.dcache.WriteReq.hits::total        4820150                       # number of WriteReq hits (Count)
system.cpu.dcache.WriteReq.misses::cpu.data         1710                       # number of WriteReq misses (Count)
system.cpu.dcache.WriteReq.misses::total         1710                       # number of WriteReq misses (Count)
system.cpu.dcache.WriteReq.missLatency::cpu.data    111662498                       # number of WriteReq miss ticks (Tick)
system.cpu.dcache.WriteReq.missLatency::total    111662498                       # number of WriteReq miss ticks (Tick)
system.cpu.dcache.WriteReq.accesses::cpu.data      4821860                       # number of WriteReq accesses(hits+misses) (Count)
system.cpu.dcache.WriteReq.accesses::total      4821860                       # number of WriteReq accesses(hits+misses) (Count)
system.cpu.dcache.WriteReq.missRate::cpu.data     0.000355                       # miss rate for WriteReq accesses (Ratio)
system.cpu.dcache.WriteReq.missRate::total     0.000355                       # miss rate for WriteReq accesses (Ratio)
system.cpu.dcache.WriteReq.avgMissLatency::cpu.data 65299.706433                       # average WriteReq miss latency ((Tick/Count))
system.cpu.dcache.WriteReq.avgMissLatency::total 65299.706433                       # average WriteReq miss latency ((Tick/Count))
system.cpu.dcache.WriteReq.mshrHits::cpu.data            7                       # number of WriteReq MSHR hits (Count)
system.cpu.dcache.WriteReq.mshrHits::total            7                       # number of WriteReq MSHR hits (Count)
system.cpu.dcache.WriteReq.mshrMisses::cpu.data         1703                       # number of WriteReq MSHR misses (Count)
system.cpu.dcache.WriteReq.mshrMisses::total         1703                       # number of WriteReq MSHR misses (Count)
system.cpu.dcache.WriteReq.mshrMissLatency::cpu.data    109670999                       # number of WriteReq MSHR miss ticks (Tick)
system.cpu.dcache.WriteReq.mshrMissLatency::total    109670999                       # number of WriteReq MSHR miss ticks (Tick)
system.cpu.dcache.WriteReq.mshrMissRate::cpu.data     0.000353                       # mshr miss rate for WriteReq accesses (Ratio)
system.cpu.dcache.WriteReq.mshrMissRate::total     0.000353                       # mshr miss rate for WriteReq accesses (Ratio)
system.cpu.dcache.WriteReq.avgMshrMissLatency::cpu.data 64398.707575                       # average WriteReq mshr miss latency ((Tick/Count))
system.cpu.dcache.WriteReq.avgMshrMissLatency::total 64398.707575                       # average WriteReq mshr miss latency ((Tick/Count))
system.cpu.dcache.power_state.pwrStateResidencyTicks::UNDEFINED   6140786500                       # Cumulative time (in ticks) in various power states (Tick)
system.cpu.dcache.tags.tagsInUse           503.474741                       # Average ticks per tags in use ((Tick/Count))
system.cpu.dcache.tags.totalRefs              7887835                       # Total number of references to valid blocks. (Count)
system.cpu.dcache.tags.sampledRefs              33907                       # Sample count of references to valid blocks. (Count)
system.cpu.dcache.tags.avgRefs             232.631463                       # Average number of references to valid blocks. ((Count/Count))
system.cpu.dcache.tags.warmupTick              176500                       # The tick when the warmup percentage was hit. (Tick)
system.cpu.dcache.tags.occupancies::cpu.data   503.474741                       # Average occupied blocks per tick, per requestor ((Count/Tick))
system.cpu.dcache.tags.avgOccs::cpu.data     0.983349                       # Average percentage of cache occupancy ((Ratio/Tick))
system.cpu.dcache.tags.avgOccs::total        0.983349                       # Average percentage of cache occupancy ((Ratio/Tick))
system.cpu.dcache.tags.occupanciesTaskId::1024          512                       # Occupied blocks per task id (Count)
system.cpu.dcache.tags.ageTaskId_1024::0           19                       # Occupied blocks per task id, per block age (Count)
system.cpu.dcache.tags.ageTaskId_1024::1          486                       # Occupied blocks per task id, per block age (Count)
system.cpu.dcache.tags.ageTaskId_1024::2            4                       # Occupied blocks per task id, per block age (Count)
system.cpu.dcache.tags.ageTaskId_1024::3            3                       # Occupied blocks per task id, per block age (Count)
system.cpu.dcache.tags.ratioOccsTaskId::1024            1                       # Ratio of occupied blocks and all blocks, per task id (Ratio)
system.cpu.dcache.tags.tagAccesses           31628707                       # Number of tag accesses (Count)
system.cpu.dcache.tags.dataAccesses          31628707                       # Number of data accesses (Count)
system.cpu.dcache.tags.power_state.pwrStateResidencyTicks::UNDEFINED   6140786500                       # Cumulative time (in ticks) in various power states (Tick)
system.cpu.decode.idleCycles                  3343658                       # Number of cycles decode is idle (Cycle)
system.cpu.decode.blockedCycles               1288682                       # Number of cycles decode is blocked (Cycle)
system.cpu.decode.runCycles                   7271779                       # Number of cycles decode is running (Cycle)
system.cpu.decode.unblockCycles                224375                       # Number of cycles decode is unblocking (Cycle)
system.cpu.decode.squashCycles                  29817                       # Number of cycles decode is squashing (Cycle)
system.cpu.decode.branchResolved              2093304                       # Number of times decode resolved a branch (Count)
system.cpu.decode.branchMispred                  2985                       # Number of times decode detected a branch misprediction (Count)
system.cpu.decode.decodedInsts               43238987                       # Number of instructions handled by decode (Count)
system.cpu.decode.squashedInsts                 10222                       # Number of squashed instructions handled by decode (Count)
system.cpu.dtb_walker_cache.blockedCycles::no_mshrs            0                       # number of cycles access was blocked (Cycle)
system.cpu.dtb_walker_cache.blockedCycles::no_targets            0                       # number of cycles access was blocked (Cycle)
system.cpu.dtb_walker_cache.blockedCauses::no_mshrs            0                       # number of times access was blocked (Count)
system.cpu.dtb_walker_cache.blockedCauses::no_targets            0                       # number of times access was blocked (Count)
system.cpu.dtb_walker_cache.avgBlocked::no_mshrs          nan                       # average number of cycles each access was blocked ((Cycle/Count))
system.cpu.dtb_walker_cache.avgBlocked::no_targets          nan                       # average number of cycles each access was blocked ((Cycle/Count))
system.cpu.dtb_walker_cache.replacements            0                       # number of replacements (Count)
system.cpu.dtb_walker_cache.power_state.pwrStateResidencyTicks::UNDEFINED   6140786500                       # Cumulative time (in ticks) in various power states (Tick)
system.cpu.dtb_walker_cache.tags.tagsInUse            0                       # Average ticks per tags in use ((Tick/Count))
system.cpu.dtb_walker_cache.tags.totalRefs            0                       # Total number of references to valid blocks. (Count)
system.cpu.dtb_walker_cache.tags.sampledRefs            0                       # Sample count of references to valid blocks. (Count)
system.cpu.dtb_walker_cache.tags.avgRefs          nan                       # Average number of references to valid blocks. ((Count/Count))
system.cpu.dtb_walker_cache.tags.warmupTick            0                       # The tick when the warmup percentage was hit. (Tick)
system.cpu.dtb_walker_cache.tags.tagAccesses            0                       # Number of tag accesses (Count)
system.cpu.dtb_walker_cache.tags.dataAccesses            0                       # Number of data accesses (Count)
system.cpu.dtb_walker_cache.tags.power_state.pwrStateResidencyTicks::UNDEFINED   6140786500                       # Cumulative time (in ticks) in various power states (Tick)
system.cpu.fetch.icacheStallCycles            3582671                       # Number of cycles fetch is stalled on an Icache miss (Cycle)
system.cpu.fetch.insts                       25038781                       # Number of instructions fetch has processed (Count)
system.cpu.fetch.branches                     4783823                       # Number of branches that fetch encountered (Count)
system.cpu.fetch.predictedBranches            3556245                       # Number of branches that fetch has predicted taken (Count)
system.cpu.fetch.cycles                       8540742                       # Number of cycles fetch has run and was not squashing or blocked (Cycle)
system.cpu.fetch.squashCycles                   65482                       # Number of cycles fetch has spent squashing (Cycle)
system.cpu.fetch.miscStallCycles                  311                       # Number of cycles fetch has spent waiting on interrupts, or bad addresses, or out of MSHRs (Cycle)
system.cpu.fetch.pendingTrapStallCycles          1778                       # Number of stall cycles due to pending traps (Cycle)
system.cpu.fetch.pendingQuiesceStallCycles           59                       # Number of stall cycles due to pending quiesce instructions (Cycle)
system.cpu.fetch.icacheWaitRetryStallCycles            9                       # Number of stall cycles due to full MSHR (Cycle)
system.cpu.fetch.cacheLines                   3501397                       # Number of cache lines fetched (Count)
system.cpu.fetch.icacheSquashes                 11399                       # Number of outstanding Icache misses that were squashed (Count)
system.cpu.fetch.nisnDist::samples           12158311                       # Number of instructions fetched each cycle (Total) (Count)
system.cpu.fetch.nisnDist::mean              3.568725                       # Number of instructions fetched each cycle (Total) (Count)
system.cpu.fetch.nisnDist::stdev             3.406374                       # Number of instructions fetched each cycle (Total) (Count)
system.cpu.fetch.nisnDist::underflows               0      0.00%      0.00% # Number of instructions fetched each cycle (Total) (Count)
system.cpu.fetch.nisnDist::0                  4427822     36.42%     36.42% # Number of instructions fetched each cycle (Total) (Count)
system.cpu.fetch.nisnDist::1                   683095      5.62%     42.04% # Number of instructions fetched each cycle (Total) (Count)
system.cpu.fetch.nisnDist::2                   772275      6.35%     48.39% # Number of instructions fetched each cycle (Total) (Count)
system.cpu.fetch.nisnDist::3                   484591      3.99%     52.37% # Number of instructions fetched each cycle (Total) (Count)
system.cpu.fetch.nisnDist::4                  1080783      8.89%     61.26% # Number of instructions fetched each cycle (Total) (Count)
system.cpu.fetch.nisnDist::5                   407090      3.35%     64.61% # Number of instructions fetched each cycle (Total) (Count)
system.cpu.fetch.nisnDist::6                   511871      4.21%     68.82% # Number of instructions fetched each cycle (Total) (Count)
system.cpu.fetch.nisnDist::7                    47834      0.39%     69.21% # Number of instructions fetched each cycle (Total) (Count)
system.cpu.fetch.nisnDist::8                  3742950     30.79%    100.00% # Number of instructions fetched each cycle (Total) (Count)
system.cpu.fetch.nisnDist::overflows                0      0.00%    100.00% # Number of instructions fetched each cycle (Total) (Count)
system.cpu.fetch.nisnDist::min_value                0                       # Number of instructions fetched each cycle (Total) (Count)
system.cpu.fetch.nisnDist::max_value                8                       # Number of instructions fetched each cycle (Total) (Count)
system.cpu.fetch.nisnDist::total             12158311                       # Number of instructions fetched each cycle (Total) (Count)
system.cpu.fetch.branchRate                  0.389512                       # Number of branch fetches per cycle (Ratio)
system.cpu.fetch.rate                        2.038727                       # Number of inst fetches per cycle ((Count/Cycle))
system.cpu.icache.demandHits::cpu.inst        3498828                       # number of demand (read+write) hits (Count)
system.cpu.icache.demandHits::total           3498828                       # number of demand (read+write) hits (Count)
system.cpu.icache.overallHits::cpu.inst       3498828                       # number of overall hits (Count)
system.cpu.icache.overallHits::total          3498828                       # number of overall hits (Count)
system.cpu.icache.demandMisses::cpu.inst         2568                       # number of demand (read+write) misses (Count)
system.cpu.icache.demandMisses::total            2568                       # number of demand (read+write) misses (Count)
system.cpu.icache.overallMisses::cpu.inst         2568                       # number of overall misses (Count)
system.cpu.icache.overallMisses::total           2568                       # number of overall misses (Count)
system.cpu.icache.demandMissLatency::cpu.inst    179433500                       # number of demand (read+write) miss ticks (Tick)
system.cpu.icache.demandMissLatency::total    179433500                       # number of demand (read+write) miss ticks (Tick)
system.cpu.icache.overallMissLatency::cpu.inst    179433500                       # number of overall miss ticks (Tick)
system.cpu.icache.overallMissLatency::total    179433500                       # number of overall miss ticks (Tick)
system.cpu.icache.demandAccesses::cpu.inst      3501396                       # number of demand (read+write) accesses (Count)
system.cpu.icache.demandAccesses::total       3501396                       # number of demand (read+write) accesses (Count)
system.cpu.icache.overallAccesses::cpu.inst      3501396                       # number of overall (read+write) accesses (Count)
system.cpu.icache.overallAccesses::total      3501396                       # number of overall (read+write) accesses (Count)
system.cpu.icache.demandMissRate::cpu.inst     0.000733                       # miss rate for demand accesses (Ratio)
system.cpu.icache.demandMissRate::total      0.000733                       # miss rate for demand accesses (Ratio)
system.cpu.icache.overallMissRate::cpu.inst     0.000733                       # miss rate for overall accesses (Ratio)
system.cpu.icache.overallMissRate::total     0.000733                       # miss rate for overall accesses (Ratio)
system.cpu.icache.demandAvgMissLatency::cpu.inst 69872.858255                       # average overall miss latency ((Cycle/Count))
system.cpu.icache.demandAvgMissLatency::total 69872.858255                       # average overall miss latency ((Cycle/Count))
system.cpu.icache.overallAvgMissLatency::cpu.inst 69872.858255                       # average overall miss latency ((Cycle/Count))
system.cpu.icache.overallAvgMissLatency::total 69872.858255                       # average overall miss latency ((Cycle/Count))
system.cpu.icache.blockedCycles::no_mshrs          311                       # number of cycles access was blocked (Cycle)
system.cpu.icache.blockedCycles::no_targets            0                       # number of cycles access was blocked (Cycle)
system.cpu.icache.blockedCauses::no_mshrs            3                       # number of times access was blocked (Count)
system.cpu.icache.blockedCauses::no_targets            0                       # number of times access was blocked (Count)
system.cpu.icache.avgBlocked::no_mshrs     103.666667                       # average number of cycles each access was blocked ((Cycle/Count))
system.cpu.icache.avgBlocked::no_targets          nan                       # average number of cycles each access was blocked ((Cycle/Count))
system.cpu.icache.writebacks::writebacks         1241                       # number of writebacks (Count)
system.cpu.icache.writebacks::total              1241                       # number of writebacks (Count)
system.cpu.icache.demandMshrHits::cpu.inst          808                       # number of demand (read+write) MSHR hits (Count)
system.cpu.icache.demandMshrHits::total           808                       # number of demand (read+write) MSHR hits (Count)
system.cpu.icache.overallMshrHits::cpu.inst          808                       # number of overall MSHR hits (Count)
system.cpu.icache.overallMshrHits::total          808                       # number of overall MSHR hits (Count)
system.cpu.icache.demandMshrMisses::cpu.inst         1760                       # number of demand (read+write) MSHR misses (Count)
system.cpu.icache.demandMshrMisses::total         1760                       # number of demand (read+write) MSHR misses (Count)
system.cpu.icache.overallMshrMisses::cpu.inst         1760                       # number of overall MSHR misses (Count)
system.cpu.icache.overallMshrMisses::total         1760                       # number of overall MSHR misses (Count)
system.cpu.icache.demandMshrMissLatency::cpu.inst    133321000                       # number of demand (read+write) MSHR miss ticks (Tick)
system.cpu.icache.demandMshrMissLatency::total    133321000                       # number of demand (read+write) MSHR miss ticks (Tick)
system.cpu.icache.overallMshrMissLatency::cpu.inst    133321000                       # number of overall MSHR miss ticks (Tick)
system.cpu.icache.overallMshrMissLatency::total    133321000                       # number of overall MSHR miss ticks (Tick)
system.cpu.icache.demandMshrMissRate::cpu.inst     0.000503                       # mshr miss ratio for demand accesses (Ratio)
system.cpu.icache.demandMshrMissRate::total     0.000503                       # mshr miss ratio for demand accesses (Ratio)
system.cpu.icache.overallMshrMissRate::cpu.inst     0.000503                       # mshr miss ratio for overall accesses (Ratio)
system.cpu.icache.overallMshrMissRate::total     0.000503                       # mshr miss ratio for overall accesses (Ratio)
system.cpu.icache.demandAvgMshrMissLatency::cpu.inst 75750.568182                       # average overall mshr miss latency ((Cycle/Count))
system.cpu.icache.demandAvgMshrMissLatency::total 75750.568182                       # average overall mshr miss latency ((Cycle/Count))
system.cpu.icache.overallAvgMshrMissLatency::cpu.inst 75750.568182                       # average overall mshr miss latency ((Cycle/Count))
system.cpu.icache.overallAvgMshrMissLatency::total 75750.568182                       # average overall mshr miss latency ((Cycle/Count))
system.cpu.icache.replacements                   1241                       # number of replacements (Count)
system.cpu.icache.ReadReq.hits::cpu.inst      3498828                       # number of ReadReq hits (Count)
system.cpu.icache.ReadReq.hits::total         3498828                       # number of ReadReq hits (Count)
system.cpu.icache.ReadReq.misses::cpu.inst         2568                       # number of ReadReq misses (Count)
system.cpu.icache.ReadReq.misses::total          2568                       # number of ReadReq misses (Count)
system.cpu.icache.ReadReq.missLatency::cpu.inst    179433500                       # number of ReadReq miss ticks (Tick)
system.cpu.icache.ReadReq.missLatency::total    179433500                       # number of ReadReq miss ticks (Tick)
system.cpu.icache.ReadReq.accesses::cpu.inst      3501396                       # number of ReadReq accesses(hits+misses) (Count)
system.cpu.icache.ReadReq.accesses::total      3501396                       # number of ReadReq accesses(hits+misses) (Count)
system.cpu.icache.ReadReq.missRate::cpu.inst     0.000733                       # miss rate for ReadReq accesses (Ratio)
system.cpu.icache.ReadReq.missRate::total     0.000733                       # miss rate for ReadReq accesses (Ratio)
system.cpu.icache.ReadReq.avgMissLatency::cpu.inst 69872.858255                       # average ReadReq miss latency ((Tick/Count))
system.cpu.icache.ReadReq.avgMissLatency::total 69872.858255                       # average ReadReq miss latency ((Tick/Count))
system.cpu.icache.ReadReq.mshrHits::cpu.inst          808                       # number of ReadReq MSHR hits (Count)
system.cpu.icache.ReadReq.mshrHits::total          808                       # number of ReadReq MSHR hits (Count)
system.cpu.icache.ReadReq.mshrMisses::cpu.inst         1760                       # number of ReadReq MSHR misses (Count)
system.cpu.icache.ReadReq.mshrMisses::total         1760                       # number of ReadReq MSHR misses (Count)
system.cpu.icache.ReadReq.mshrMissLatency::cpu.inst    133321000                       # number of ReadReq MSHR miss ticks (Tick)
system.cpu.icache.ReadReq.mshrMissLatency::total    133321000                       # number of ReadReq MSHR miss ticks (Tick)
system.cpu.icache.ReadReq.mshrMissRate::cpu.inst     0.000503                       # mshr miss rate for ReadReq accesses (Ratio)
system.cpu.icache.ReadReq.mshrMissRate::total     0.000503                       # mshr miss rate for ReadReq accesses (Ratio)
system.cpu.icache.ReadReq.avgMshrMissLatency::cpu.inst 75750.568182                       # average ReadReq mshr miss latency ((Tick/Count))
system.cpu.icache.ReadReq.avgMshrMissLatency::total 75750.568182                       # average ReadReq mshr miss latency ((Tick/Count))
[...]
system.mem_ctrls.dram.perBankWrBursts::14          100                       # Per bank write bursts (Count)
system.mem_ctrls.dram.perBankWrBursts::15           53                       # Per bank write bursts (Count)
system.mem_ctrls.dram.totQLat                47457250                       # Total ticks spent queuing (Tick)
system.mem_ctrls.dram.totBusLat              35105000                       # Total ticks spent in databus transfers (Tick)
system.mem_ctrls.dram.totMemAccLat          179101000                       # Total ticks spent from burst creation until serviced by the DRAM (Tick)
system.mem_ctrls.dram.avgQLat                 6759.33                       # Average queueing delay per DRAM burst ((Tick/Count))
system.mem_ctrls.dram.avgBusLat               5000.00                       # Average bus latency per DRAM burst ((Tick/Count))
system.mem_ctrls.dram.avgMemAccLat           25509.33                       # Average memory access latency per DRAM burst ((Tick/Count))
system.mem_ctrls.dram.readRowHits                5918                       # Number of row buffer hits during reads (Count)
system.mem_ctrls.dram.writeRowHits                518                       # Number of row buffer hits during writes (Count)
system.mem_ctrls.dram.readRowHitRate            84.29                       # Row buffer hit rate for reads (Ratio)
system.mem_ctrls.dram.writeRowHitRate           84.36                       # Row buffer hit rate for writes (Ratio)
system.mem_ctrls.dram.bytesPerActivate::samples         1196                       # Bytes accessed per row activation (Byte)
system.mem_ctrls.dram.bytesPerActivate::mean   408.026756                       # Bytes accessed per row activation (Byte)
system.mem_ctrls.dram.bytesPerActivate::gmean   248.427314                       # Bytes accessed per row activation (Byte)
system.mem_ctrls.dram.bytesPerActivate::stdev   366.266975                       # Bytes accessed per row activation (Byte)
system.mem_ctrls.dram.bytesPerActivate::0-127          314     26.25%     26.25% # Bytes accessed per row activation (Byte)
system.mem_ctrls.dram.bytesPerActivate::128-255          266     22.24%     48.49% # Bytes accessed per row activation (Byte)
system.mem_ctrls.dram.bytesPerActivate::256-383          110      9.20%     57.69% # Bytes accessed per row activation (Byte)
system.mem_ctrls.dram.bytesPerActivate::384-511           97      8.11%     65.80% # Bytes accessed per row activation (Byte)
system.mem_ctrls.dram.bytesPerActivate::512-639           62      5.18%     70.99% # Bytes accessed per row activation (Byte)
system.mem_ctrls.dram.bytesPerActivate::640-767           59      4.93%     75.92% # Bytes accessed per row activation (Byte)
system.mem_ctrls.dram.bytesPerActivate::768-895           38      3.18%     79.10% # Bytes accessed per row activation (Byte)
system.mem_ctrls.dram.bytesPerActivate::896-1023           23      1.92%     81.02% # Bytes accessed per row activation (Byte)
system.mem_ctrls.dram.bytesPerActivate::1024-1151          227     18.98%    100.00% # Bytes accessed per row activation (Byte)
system.mem_ctrls.dram.bytesPerActivate::total         1196                       # Bytes accessed per row activation (Byte)
system.mem_ctrls.dram.bytesRead                449344                       # Total number of bytes read from DRAM (Byte)
system.mem_ctrls.dram.bytesWritten              39296                       # Total number of bytes written to DRAM (Byte)
system.mem_ctrls.dram.avgRdBW               73.173689                       # Average DRAM read bandwidth in MiBytes/s ((Byte/Second))
system.mem_ctrls.dram.avgWrBW                6.399180                       # Average DRAM write bandwidth in MiBytes/s ((Byte/Second))
system.mem_ctrls.dram.peakBW                 12800.00                       # Theoretical peak bandwidth in MiByte/s ((Byte/Second))
system.mem_ctrls.dram.busUtil                    0.62                       # Data bus utilization in percentage (Ratio)
system.mem_ctrls.dram.busUtilRead                0.57                       # Data bus utilization in percentage for reads (Ratio)
system.mem_ctrls.dram.busUtilWrite               0.05                       # Data bus utilization in percentage for writes (Ratio)
system.mem_ctrls.dram.pageHitRate               84.30                       # Row buffer hit rate, read and write combined (Ratio)
system.mem_ctrls.dram.power_state.pwrStateResidencyTicks::UNDEFINED   6140786500                       # Cumulative time (in ticks) in various power states (Tick)
system.mem_ctrls.dram.rank0.actEnergy         4819500                       # Energy for activate commands per rank (pJ) (Joule)
system.mem_ctrls.dram.rank0.preEnergy         2554035                       # Energy for precharge commands per rank (pJ) (Joule)
system.mem_ctrls.dram.rank0.readEnergy       27731760                       # Energy for read commands per rank (pJ) (Joule)
system.mem_ctrls.dram.rank0.writeEnergy       1237140                       # Energy for write commands per rank (pJ) (Joule)
system.mem_ctrls.dram.rank0.refreshEnergy 484336320.000000                       # Energy for refresh commands per rank (pJ) (Joule)
system.mem_ctrls.dram.rank0.actBackEnergy    561733290                       # Energy for active background per rank (pJ) (Joule)
system.mem_ctrls.dram.rank0.preBackEnergy   1885023840                       # Energy for precharge background per rank (pJ) (Joule)
system.mem_ctrls.dram.rank0.actPowerDownEnergy            0                       # Energy for active power-down per rank (pJ) (Joule)
system.mem_ctrls.dram.rank0.prePowerDownEnergy            0                       # Energy for precharge power-down per rank (pJ) (Joule)
system.mem_ctrls.dram.rank0.selfRefreshEnergy            0                       # Energy for self refresh per rank (pJ) (Joule)
system.mem_ctrls.dram.rank0.totalEnergy    2967435885                       # Total energy per rank (pJ) (Joule)
system.mem_ctrls.dram.rank0.averagePower   483.233847                       # Core power per rank (mW) (Watt)
system.mem_ctrls.dram.rank0.totalIdleTime            0                       # Total Idle time Per DRAM Rank (Tick)
system.mem_ctrls.dram.rank0.pwrStateTime::IDLE   4894467250                       # Time in different power states (Tick)
system.mem_ctrls.dram.rank0.pwrStateTime::REF    204880000                       # Time in different power states (Tick)
system.mem_ctrls.dram.rank0.pwrStateTime::SREF            0                       # Time in different power states (Tick)
system.mem_ctrls.dram.rank0.pwrStateTime::PRE_PDN            0                       # Time in different power states (Tick)
system.mem_ctrls.dram.rank0.pwrStateTime::ACT   1041439250                       # Time in different power states (Tick)
system.mem_ctrls.dram.rank0.pwrStateTime::ACT_PDN            0                       # Time in different power states (Tick)
system.mem_ctrls.dram.rank1.actEnergy         3741360                       # Energy for activate commands per rank (pJ) (Joule)
system.mem_ctrls.dram.rank1.preEnergy         1984785                       # Energy for precharge commands per rank (pJ) (Joule)
system.mem_ctrls.dram.rank1.readEnergy       22398180                       # Energy for read commands per rank (pJ) (Joule)
system.mem_ctrls.dram.rank1.writeEnergy       1967940                       # Energy for write commands per rank (pJ) (Joule)
system.mem_ctrls.dram.rank1.refreshEnergy 484336320.000000                       # Energy for refresh commands per rank (pJ) (Joule)
system.mem_ctrls.dram.rank1.actBackEnergy    374848530                       # Energy for active background per rank (pJ) (Joule)
system.mem_ctrls.dram.rank1.preBackEnergy   2042400480                       # Energy for precharge background per rank (pJ) (Joule)
system.mem_ctrls.dram.rank1.actPowerDownEnergy            0                       # Energy for active power-down per rank (pJ) (Joule)
system.mem_ctrls.dram.rank1.prePowerDownEnergy            0                       # Energy for precharge power-down per rank (pJ) (Joule)
system.mem_ctrls.dram.rank1.selfRefreshEnergy            0                       # Energy for self refresh per rank (pJ) (Joule)
system.mem_ctrls.dram.rank1.totalEnergy    2931677595                       # Total energy per rank (pJ) (Joule)
system.mem_ctrls.dram.rank1.averagePower   477.410767                       # Core power per rank (mW) (Watt)
system.mem_ctrls.dram.rank1.totalIdleTime            0                       # Total Idle time Per DRAM Rank (Tick)
system.mem_ctrls.dram.rank1.pwrStateTime::IDLE   5305667000                       # Time in different power states (Tick)
system.mem_ctrls.dram.rank1.pwrStateTime::REF    204880000                       # Time in different power states (Tick)
system.mem_ctrls.dram.rank1.pwrStateTime::SREF            0                       # Time in different power states (Tick)
system.mem_ctrls.dram.rank1.pwrStateTime::PRE_PDN            0                       # Time in different power states (Tick)
system.mem_ctrls.dram.rank1.pwrStateTime::ACT    630239500                       # Time in different power states (Tick)
system.mem_ctrls.dram.rank1.pwrStateTime::ACT_PDN            0                       # Time in different power states (Tick)
system.mem_ctrls.power_state.pwrStateResidencyTicks::UNDEFINED   6140786500                       # Cumulative time (in ticks) in various power states (Tick)
system.membus.transDist::ReadResp                5698                       # Transaction distribution (Count)
system.membus.transDist::WritebackDirty           644                       # Transaction distribution (Count)
system.membus.transDist::CleanEvict              2090                       # Transaction distribution (Count)
system.membus.transDist::ReadExReq               1352                       # Transaction distribution (Count)
system.membus.transDist::ReadExResp              1352                       # Transaction distribution (Count)
system.membus.transDist::ReadSharedReq           5698                       # Transaction distribution (Count)
system.membus.pktCount_system.l2.mem_side_port::system.mem_ctrls.port        16834                       # Packet count per connected requestor and responder (Count)
system.membus.pktCount_system.l2.mem_side_port::total        16834                       # Packet count per connected requestor and responder (Count)
system.membus.pktCount::total                   16834                       # Packet count per connected requestor and responder (Count)
system.membus.pktSize_system.l2.mem_side_port::system.mem_ctrls.port       492416                       # Cumulative packet size per connected requestor and responder (Byte)
system.membus.pktSize_system.l2.mem_side_port::total       492416                       # Cumulative packet size per connected requestor and responder (Byte)
system.membus.pktSize::total                   492416                       # Cumulative packet size per connected requestor and responder (Byte)
system.membus.snoops                                0                       # Total snoops (Count)
system.membus.snoopTraffic                          0                       # Total snoop traffic (Byte)
system.membus.snoopFanout::samples               7050                       # Request fanout histogram (Count)
system.membus.snoopFanout::mean                     0                       # Request fanout histogram (Count)
system.membus.snoopFanout::stdev                    0                       # Request fanout histogram (Count)
system.membus.snoopFanout::underflows               0      0.00%      0.00% # Request fanout histogram (Count)
system.membus.snoopFanout::0                     7050    100.00%    100.00% # Request fanout histogram (Count)
system.membus.snoopFanout::1                        0      0.00%    100.00% # Request fanout histogram (Count)
system.membus.snoopFanout::overflows                0      0.00%    100.00% # Request fanout histogram (Count)
system.membus.snoopFanout::min_value                0                       # Request fanout histogram (Count)
system.membus.snoopFanout::max_value                0                       # Request fanout histogram (Count)
system.membus.snoopFanout::total                 7050                       # Request fanout histogram (Count)
system.membus.power_state.pwrStateResidencyTicks::UNDEFINED   6140786500                       # Cumulative time (in ticks) in various power states (Tick)
system.membus.reqLayer2.occupancy            13781000                       # Layer occupancy (ticks) (Tick)
system.membus.reqLayer2.utilization               0.0                       # Layer utilization (Ratio)
system.membus.respLayer1.occupancy           37312250                       # Layer occupancy (ticks) (Tick)
system.membus.respLayer1.utilization              0.0                       # Layer utilization (Ratio)
system.membus.snoop_filter.totRequests           9784                       # Total number of requests made to the snoop filter. (Count)
system.membus.snoop_filter.hitSingleRequests         2737                       # Number of requests hitting in the snoop filter with a single holder of the requested data. (Count)
system.membus.snoop_filter.hitMultiRequests            0                       # Number of requests hitting in the snoop filter with multiple (>1) holders of the requested data. (Count)
system.membus.snoop_filter.totSnoops                0                       # Total number of snoops made to the snoop filter. (Count)
system.membus.snoop_filter.hitSingleSnoops            0                       # Number of snoops hitting in the snoop filter with a single holder of the requested data. (Count)
system.membus.snoop_filter.hitMultiSnoops            0                       # Number of snoops hitting in the snoop filter with multiple (>1) holders of the requested data. (Count)
system.tol2bus.transDist::ReadResp              33968                       # Transaction distribution (Count)
system.tol2bus.transDist::WritebackDirty         6283                       # Transaction distribution (Count)
system.tol2bus.transDist::WritebackClean         1241                       # Transaction distribution (Count)
system.tol2bus.transDist::CleanEvict            30386                       # Transaction distribution (Count)
system.tol2bus.transDist::UpgradeReq                7                       # Transaction distribution (Count)
system.tol2bus.transDist::UpgradeResp               7                       # Transaction distribution (Count)
system.tol2bus.transDist::ReadExReq              1698                       # Transaction distribution (Count)
system.tol2bus.transDist::ReadExResp             1698                       # Transaction distribution (Count)
system.tol2bus.transDist::ReadCleanReq           1759                       # Transaction distribution (Count)
system.tol2bus.transDist::ReadSharedReq         32209                       # Transaction distribution (Count)
system.tol2bus.pktCount_system.cpu.icache.mem_side_port::system.l2.cpu_side_port         4752                       # Packet count per connected requestor and responder (Count)
system.tol2bus.pktCount_system.cpu.dcache.mem_side_port::system.l2.cpu_side_port       101223                       # Packet count per connected requestor and responder (Count)
system.tol2bus.pktCount::total                 105975                       # Packet count per connected requestor and responder (Count)
system.tol2bus.pktSize_system.cpu.icache.mem_side_port::system.l2.cpu_side_port       191552                       # Cumulative packet size per connected requestor and responder (Byte)
system.tol2bus.pktSize_system.cpu.dcache.mem_side_port::system.l2.cpu_side_port      2530944                       # Cumulative packet size per connected requestor and responder (Byte)
system.tol2bus.pktSize::total                 2722496                       # Cumulative packet size per connected requestor and responder (Byte)
system.tol2bus.snoops                            3281                       # Total snoops (Count)
system.tol2bus.snoopTraffic                     41664                       # Total snoop traffic (Byte)
system.tol2bus.snoopFanout::samples             38947                       # Request fanout histogram (Count)
system.tol2bus.snoopFanout::mean             0.014918                       # Request fanout histogram (Count)
system.tol2bus.snoopFanout::stdev            0.121225                       # Request fanout histogram (Count)
system.tol2bus.snoopFanout::underflows              0      0.00%      0.00% # Request fanout histogram (Count)
system.tol2bus.snoopFanout::0                   38366     98.51%     98.51% # Request fanout histogram (Count)
system.tol2bus.snoopFanout::1                     581      1.49%    100.00% # Request fanout histogram (Count)
system.tol2bus.snoopFanout::2                       0      0.00%    100.00% # Request fanout histogram (Count)
system.tol2bus.snoopFanout::3                       0      0.00%    100.00% # Request fanout histogram (Count)
system.tol2bus.snoopFanout::4                       0      0.00%    100.00% # Request fanout histogram (Count)
system.tol2bus.snoopFanout::overflows               0      0.00%    100.00% # Request fanout histogram (Count)
system.tol2bus.snoopFanout::min_value               0                       # Request fanout histogram (Count)
system.tol2bus.snoopFanout::max_value               1                       # Request fanout histogram (Count)
system.tol2bus.snoopFanout::total               38947                       # Request fanout histogram (Count)
system.tol2bus.power_state.pwrStateResidencyTicks::UNDEFINED   6140786500                       # Cumulative time (in ticks) in various power states (Tick)
system.tol2bus.reqLayer0.occupancy           42034500                       # Layer occupancy (ticks) (Tick)
system.tol2bus.reqLayer0.utilization              0.0                       # Layer utilization (Ratio)
system.tol2bus.respLayer0.occupancy           2638999                       # Layer occupancy (ticks) (Tick)
system.tol2bus.respLayer0.utilization             0.0                       # Layer utilization (Ratio)
system.tol2bus.respLayer1.occupancy          50864000                       # Layer occupancy (ticks) (Tick)
system.tol2bus.respLayer1.utilization             0.0                       # Layer utilization (Ratio)
system.tol2bus.snoop_filter.totRequests         70309                       # Total number of requests made to the snoop filter. (Count)
system.tol2bus.snoop_filter.hitSingleRequests        34645                       # Number of requests hitting in the snoop filter with a single holder of the requested data. (Count)
system.tol2bus.snoop_filter.hitMultiRequests           23                       # Number of requests hitting in the snoop filter with multiple (>1) holders of the requested data. (Count)
system.tol2bus.snoop_filter.totSnoops             549                       # Total number of snoops made to the snoop filter. (Count)
system.tol2bus.snoop_filter.hitSingleSnoops          549                       # Number of snoops hitting in the snoop filter with a single holder of the requested data. (Count)
system.tol2bus.snoop_filter.hitMultiSnoops            0                       # Number of snoops hitting in the snoop filter with multiple (>1) holders of the requested data. (Count)
system.voltage_domain.voltage                       1                       # Voltage in Volts (Volt)
system.workload.inst.arm                            0                       # number of arm instructions executed (Count)
system.workload.inst.quiesce                        0                       # number of quiesce instructions executed (Count)

---------- End Simulation Statistics   ----------
