
---------- Begin Simulation Statistics ----------
simSeconds                                   0.003050                       # Number of seconds simulated (Second)
simTicks                                   3050157500                       # Number of ticks simulated (Tick)
finalTick                                  3050157500                       # Number of ticks from beginning of simulation (restored from checkpoints and never reset) (Tick)
simFreq                                  1000000000000                       # The number of ticks per simulated second ((Tick/Second))
hostSeconds                                     53.15                       # Real time elapsed on the host (Second)
hostTickRate                                 57392938                       # The number of ticks simulated per host second (ticks/s) ((Tick/Second))
hostMemory                                     657516                       # Number of bytes of host memory used (Byte)
simInsts                                     12198815                       # Number of instructions simulated (Count)
simOps                                       21108420                       # Number of ops (including micro ops) simulated (Count)
hostInstRate                                   229537                       # Simulator instruction rate (inst/s) ((Count/Second))
hostOpRate                                     397183                       # Simulator op (including micro ops) rate (op/s) ((Count/Second))
system.clk_domain.clock                          1000                       # Clock period in ticks (Tick)
system.cpu.numCycles                          6100316                       # Number of cpu cycles simulated (Cycle)
system.cpu.numWorkItemsStarted                      0                       # Number of work items this cpu started (Count)
system.cpu.numWorkItemsCompleted                    0                       # Number of work items this cpu completed (Count)
system.cpu.instsAdded                        21639930                       # Number of instructions added to the IQ (excludes non-spec) (Count)
system.cpu.nonSpecInstsAdded                      147                       # Number of non-speculative instructions added to the IQ (Count)
system.cpu.instsIssued                       21508995                       # Number of instructions issued (Count)
system.cpu.squashedInstsIssued                    426                       # Number of squashed instructions issued (Count)
system.cpu.squashedInstsExamined               531635                       # Number of squashed instructions iterated over during squash; mainly for profiling (Count)
system.cpu.squashedOperandsExamined            577223                       # Number of squashed operands that are examined and possibly removed from graph (Count)
system.cpu.squashedNonSpecRemoved                 140                       # Number of squashed non-spec instructions that were removed (Count)
system.cpu.numIssuedDist::samples             6035090                       # Number of insts issued each cycle (Count)
system.cpu.numIssuedDist::mean               3.563989                       # Number of insts issued each cycle (Count)
system.cpu.numIssuedDist::stdev              1.995914                       # Number of insts issued each cycle (Count)
system.cpu.numIssuedDist::underflows                0      0.00%      0.00% # Number of insts issued each cycle (Count)
system.cpu.numIssuedDist::0                    631938     10.47%     10.47% # Number of insts issued each cycle (Count)
system.cpu.numIssuedDist::1                    292421      4.85%     15.32% # Number of insts issued each cycle (Count)
system.cpu.numIssuedDist::2                    760323     12.60%     27.91% # Number of insts issued each cycle (Count)
system.cpu.numIssuedDist::3                   1264023     20.94%     48.86% # Number of insts issued each cycle (Count)
system.cpu.numIssuedDist::4                   1127074     18.68%     67.53% # Number of insts issued each cycle (Count)
system.cpu.numIssuedDist::5                    908760     15.06%     82.59% # Number of insts issued each cycle (Count)
system.cpu.numIssuedDist::6                    645977     10.70%     93.30% # Number of insts issued each cycle (Count)
system.cpu.numIssuedDist::7                    260691      4.32%     97.62% # Number of insts issued each cycle (Count)
system.cpu.numIssuedDist::8                    143883      2.38%    100.00% # Number of insts issued each cycle (Count)
system.cpu.numIssuedDist::overflows                 0      0.00%    100.00% # Number of insts issued each cycle (Count)
system.cpu.numIssuedDist::min_value                 0                       # Number of insts issued each cycle (Count)
system.cpu.numIssuedDist::max_value                 8                       # Number of insts issued each cycle (Count)
system.cpu.numIssuedDist::total               6035090                       # Number of insts issued each cycle (Count)
system.cpu.statFuBusy::No_OpClass                   0      0.00%      0.00% # attempts to use FU when none available (Count)
system.cpu.statFuBusy::IntAlu                  244413     69.86%     69.86% # attempts to use FU when none available (Count)
system.cpu.statFuBusy::IntMult                      0      0.00%     69.86% # attempts to use FU when none available (Count)
system.cpu.statFuBusy::IntDiv                       0      0.00%     69.86% # attempts to use FU when none available (Count)
system.cpu.statFuBusy::FloatAdd                     0      0.00%     69.86% # attempts to use FU when none available (Count)
system.cpu.statFuBusy::FloatCmp                     0      0.00%     69.86% # attempts to use FU when none available (Count)
system.cpu.statFuBusy::FloatCvt                     0      0.00%     69.86% # attempts to use FU when none available (Count)
system.cpu.statFuBusy::FloatMult                    0      0.00%     69.86% # attempts to use FU when none available (Count)
system.cpu.statFuBusy::FloatMultAcc                 0      0.00%     69.86% # attempts to use FU when none available (Count)
system.cpu.statFuBusy::FloatDiv                     0      0.00%     69.86% # attempts to use FU when none available (Count)
system.cpu.statFuBusy::FloatMisc                    0      0.00%     69.86% # attempts to use FU when none available (Count)
system.cpu.statFuBusy::FloatSqrt                    0      0.00%     69.86% # attempts to use FU when none available (Count)
system.cpu.statFuBusy::SimdAdd                      0      0.00%     69.86% # attempts to use FU when none available (Count)
system.cpu.statFuBusy::SimdAddAcc                   0      0.00%     69.86% # attempts to use FU when none available (Count)
system.cpu.statFuBusy::SimdAlu                      0      0.00%     69.86% # attempts to use FU when none available (Count)
system.cpu.statFuBusy::SimdCmp                      0      0.00%     69.86% # attempts to use FU when none available (Count)
system.cpu.statFuBusy::SimdCvt                      0      0.00%     69.86% # attempts to use FU when none available (Count)
system.cpu.statFuBusy::SimdMisc                     0      0.00%     69.86% # attempts to use FU when none available (Count)
system.cpu.statFuBusy::SimdMult                     0      0.00%     69.86% # attempts to use FU when none available (Count)
system.cpu.statFuBusy::SimdMultAcc                  0      0.00%     69.86% # attempts to use FU when none available (Count)
system.cpu.statFuBusy::SimdShift                    0      0.00%     69.86% # attempts to use FU when none available (Count)
system.cpu.statFuBusy::SimdShiftAcc                 0      0.00%     69.86% # attempts to use FU when none available (Count)
system.cpu.statFuBusy::SimdDiv                      0      0.00%     69.86% # attempts to use FU when none available (Count)
system.cpu.statFuBusy::SimdSqrt                     0      0.00%     69.86% # attempts to use FU when none available (Count)
system.cpu.statFuBusy::SimdFloatAdd                 0      0.00%     69.86% # attempts to use FU when none available (Count)
system.cpu.statFuBusy::SimdFloatAlu                 0      0.00%     69.86% # attempts to use FU when none available (Count)
system.cpu.statFuBusy::SimdFloatCmp                 0      0.00%     69.86% # attempts to use FU when none available (Count)
system.cpu.statFuBusy::SimdFloatCvt                 0      0.00%     69.86% # attempts to use FU when none available (Count)
system.cpu.statFuBusy::SimdFloatDiv                 0      0.00%     69.86% # attempts to use FU when none available (Count)
system.cpu.statFuBusy::SimdFloatMisc                0      0.00%     69.86% # attempts to use FU when none available (Count)
system.cpu.statFuBusy::SimdFloatMult                0      0.00%     69.86% # attempts to use FU when none available (Count)
system.cpu.statFuBusy::SimdFloatMultAcc             0      0.00%     69.86% # attempts to use FU when none available (Count)
system.cpu.statFuBusy::SimdFloatSqrt                0      0.00%     69.86% # attempts to use FU when none available (Count)
system.cpu.statFuBusy::SimdReduceAdd                0      0.00%     69.86% # attempts to use FU when none available (Count)
system.cpu.statFuBusy::SimdReduceAlu                0      0.00%     69.86% # attempts to use FU when none available (Count)
system.cpu.statFuBusy::SimdReduceCmp                0      0.00%     69.86% # attempts to use FU when none available (Count)
system.cpu.statFuBusy::SimdFloatReduceAdd            0      0.00%     69.86% # attempts to use FU when none available (Count)
system.cpu.statFuBusy::SimdFloatReduceCmp            0      0.00%     69.86% # attempts to use FU when none available (Count)
system.cpu.statFuBusy::SimdAes                      0      0.00%     69.86% # attempts to use FU when none available (Count)
system.cpu.statFuBusy::SimdAesMix                   0      0.00%     69.86% # attempts to use FU when none available (Count)
system.cpu.statFuBusy::SimdSha1Hash                 0      0.00%     69.86% # attempts to use FU when none available (Count)
system.cpu.statFuBusy::SimdSha1Hash2                0      0.00%     69.86% # attempts to use FU when none available (Count)
system.cpu.statFuBusy::SimdSha256Hash               0      0.00%     69.86% # attempts to use FU when none available (Count)
system.cpu.statFuBusy::SimdSha256Hash2              0      0.00%     69.86% # attempts to use FU when none available (Count)
system.cpu.statFuBusy::SimdShaSigma2                0      0.00%     69.86% # attempts to use FU when none available (Count)
system.cpu.statFuBusy::SimdShaSigma3                0      0.00%     69.86% # attempts to use FU when none available (Count)
system.cpu.statFuBusy::SimdPredAlu                  0      0.00%     69.86% # attempts to use FU when none available (Count)
system.cpu.statFuBusy::MemRead                  81498     23.29%     93.15% # attempts to use FU when none available (Count)
system.cpu.statFuBusy::MemWrite                 23950      6.85%    100.00% # attempts to use FU when none available (Count)
system.cpu.statFuBusy::FloatMemRead                 0      0.00%    100.00% # attempts to use FU when none available (Count)
system.cpu.statFuBusy::FloatMemWrite                0      0.00%    100.00% # attempts to use FU when none available (Count)
system.cpu.statFuBusy::IprAccess                    0      0.00%    100.00% # attempts to use FU when none available (Count)
system.cpu.statFuBusy::InstPrefetch                 0      0.00%    100.00% # attempts to use FU when none available (Count)
system.cpu.statIssuedInstType_0::No_OpClass          240      0.00%      0.00% # Number of instructions issued per FU type, per thread (Count)
system.cpu.statIssuedInstType_0::IntAlu      15147861     70.43%     70.43% # Number of instructions issued per FU type, per thread (Count)
system.cpu.statIssuedInstType_0::IntMult           54      0.00%     70.43% # Number of instructions issued per FU type, per thread (Count)
system.cpu.statIssuedInstType_0::IntDiv            29      0.00%     70.43% # Number of instructions issued per FU type, per thread (Count)
system.cpu.statIssuedInstType_0::FloatAdd            0      0.00%     70.43% # Number of instructions issued per FU type, per thread (Count)
system.cpu.statIssuedInstType_0::FloatCmp            0      0.00%     70.43% # Number of instructions issued per FU type, per thread (Count)
system.cpu.statIssuedInstType_0::FloatCvt            0      0.00%     70.43% # Number of instructions issued per FU type, per thread (Count)
system.cpu.statIssuedInstType_0::FloatMult            0      0.00%     70.43% # Number of instructions issued per FU type, per thread (Count)
system.cpu.statIssuedInstType_0::FloatMultAcc            0      0.00%     70.43% # Number of instructions issued per FU type, per thread (Count)
system.cpu.statIssuedInstType_0::FloatDiv            0      0.00%     70.43% # Number of instructions issued per FU type, per thread (Count)
system.cpu.statIssuedInstType_0::FloatMisc            0      0.00%     70.43% # Number of instructions issued per FU type, per thread (Count)
system.cpu.statIssuedInstType_0::FloatSqrt            0      0.00%     70.43% # Number of instructions issued per FU type, per thread (Count)
system.cpu.statIssuedInstType_0::SimdAdd            0      0.00%     70.43% # Number of instructions issued per FU type, per thread (Count)
system.cpu.statIssuedInstType_0::SimdAddAcc            0      0.00%     70.43% # Number of instructions issued per FU type, per thread (Count)
system.cpu.statIssuedInstType_0::SimdAlu            0      0.00%     70.43% # Number of instructions issued per FU type, per thread (Count)
system.cpu.statIssuedInstType_0::SimdCmp            0      0.00%     70.43% # Number of instructions issued per FU type, per thread (Count)
system.cpu.statIssuedInstType_0::SimdCvt            0      0.00%     70.43% # Number of instructions issued per FU type, per thread (Count)
system.cpu.statIssuedInstType_0::SimdMisc            0      0.00%     70.43% # Number of instructions issued per FU type, per thread (Count)
system.cpu.statIssuedInstType_0::SimdMult            0      0.00%     70.43% # Number of instructions issued per FU type, per thread (Count)
system.cpu.statIssuedInstType_0::SimdMultAcc            0      0.00%     70.43% # Number of instructions issued per FU type, per thread (Count)
system.cpu.statIssuedInstType_0::SimdShift            0      0.00%     70.43% # Number of instructions issued per FU type, per thread (Count)
system.cpu.statIssuedInstType_0::SimdShiftAcc            0      0.00%     70.43% # Number of instructions issued per FU type, per thread (Count)
system.cpu.statIssuedInstType_0::SimdDiv            0      0.00%     70.43% # Number of instructions issued per FU type, per thread (Count)
system.cpu.statIssuedInstType_0::SimdSqrt            0      0.00%     70.43% # Number of instructions issued per FU type, per thread (Count)
system.cpu.statIssuedInstType_0::SimdFloatAdd            0      0.00%     70.43% # Number of instructions issued per FU type, per thread (Count)
system.cpu.statIssuedInstType_0::SimdFloatAlu            0      0.00%     70.43% # Number of instructions issued per FU type, per thread (Count)
system.cpu.statIssuedInstType_0::SimdFloatCmp            0      0.00%     70.43% # Number of instructions issued per FU type, per thread (Count)
system.cpu.statIssuedInstType_0::SimdFloatCvt            0      0.00%     70.43% # Number of instructions issued per FU type, per thread (Count)
system.cpu.statIssuedInstType_0::SimdFloatDiv            0      0.00%     70.43% # Number of instructions issued per FU type, per thread (Count)
system.cpu.statIssuedInstType_0::SimdFloatMisc            0      0.00%     70.43% # Number of instructions issued per FU type, per thread (Count)
system.cpu.statIssuedInstType_0::SimdFloatMult            0      0.00%     70.43% # Number of instructions issued per FU type, per thread (Count)
system.cpu.statIssuedInstType_0::SimdFloatMultAcc            0      0.00%     70.43% # Number of instructions issued per FU type, per thread (Count)
system.cpu.statIssuedInstType_0::SimdFloatSqrt            0      0.00%     70.43% # Number of instructions issued per FU type, per thread (Count)
system.cpu.statIssuedInstType_0::SimdReduceAdd            0      0.00%     70.43% # Number of instructions issued per FU type, per thread (Count)
system.cpu.statIssuedInstType_0::SimdReduceAlu            0      0.00%     70.43% # Number of instructions issued per FU type, per thread (Count)
system.cpu.statIssuedInstType_0::SimdReduceCmp            0      0.00%     70.43% # Number of instructions issued per FU type, per thread (Count)
system.cpu.statIssuedInstType_0::SimdFloatReduceAdd            0      0.00%     70.43% # Number of instructions issued per FU type, per thread (Count)
system.cpu.statIssuedInstType_0::SimdFloatReduceCmp            0      0.00%     70.43% # Number of instructions issued per FU type, per thread (Count)
system.cpu.statIssuedInstType_0::SimdAes            0      0.00%     70.43% # Number of instructions issued per FU type, per thread (Count)
system.cpu.statIssuedInstType_0::SimdAesMix            0      0.00%     70.43% # Number of instructions issued per FU type, per thread (Count)
system.cpu.statIssuedInstType_0::SimdSha1Hash            0      0.00%     70.43% # Number of instructions issued per FU type, per thread (Count)
system.cpu.statIssuedInstType_0::SimdSha1Hash2            0      0.00%     70.43% # Number of instructions issued per FU type, per thread (Count)
system.cpu.statIssuedInstType_0::SimdSha256Hash            0      0.00%     70.43% # Number of instructions issued per FU type, per thread (Count)
system.cpu.statIssuedInstType_0::SimdSha256Hash2            0      0.00%     70.43% # Number of instructions issued per FU type, per thread (Count)
system.cpu.statIssuedInstType_0::SimdShaSigma2            0      0.00%     70.43% # Number of instructions issued per FU type, per thread (Count)
system.cpu.statIssuedInstType_0::SimdShaSigma3            0      0.00%     70.43% # Number of instructions issued per FU type, per thread (Count)
system.cpu.statIssuedInstType_0::SimdPredAlu            0      0.00%     70.43% # Number of instructions issued per FU type, per thread (Count)
system.cpu.statIssuedInstType_0::MemRead      3815602     17.74%     88.17% # Number of instructions issued per FU type, per thread (Count)
system.cpu.statIssuedInstType_0::MemWrite      2545209     11.83%    100.00% # Number of instructions issued per FU type, per thread (Count)
system.cpu.statIssuedInstType_0::FloatMemRead            0      0.00%    100.00% # Number of instructions issued per FU type, per thread (Count)
system.cpu.statIssuedInstType_0::FloatMemWrite            0      0.00%    100.00% # Number of instructions issued per FU type, per thread (Count)
system.cpu.statIssuedInstType_0::IprAccess            0      0.00%    100.00% # Number of instructions issued per FU type, per thread (Count)
system.cpu.statIssuedInstType_0::InstPrefetch            0      0.00%    100.00% # Number of instructions issued per FU type, per thread (Count)
system.cpu.statIssuedInstType_0::total       21508995                       # Number of instructions issued per FU type, per thread (Count)
system.cpu.issueRate                         3.525882                       # Inst issue rate ((Count/Cycle))
system.cpu.fuBusy                              349861                       # FU busy when requested (Count)
system.cpu.fuBusyRate                        0.016266                       # FU busy rate (busy events/executed inst) ((Count/Count))
system.cpu.intInstQueueReads                 49403367                       # Number of integer instruction queue reads (Count)
system.cpu.intInstQueueWrites                22172198                       # Number of integer instruction queue writes (Count)
system.cpu.intInstQueueWakeupAccesses        21456620                       # Number of integer instruction queue wakeup accesses (Count)
system.cpu.fpInstQueueReads                         0                       # Number of floating instruction queue reads (Count)
system.cpu.fpInstQueueWrites                        0                       # Number of floating instruction queue writes (Count)
system.cpu.fpInstQueueWakeupAccesses                0                       # Number of floating instruction queue wakeup accesses (Count)
system.cpu.vecInstQueueReads                        0                       # Number of vector instruction queue reads (Count)
system.cpu.vecInstQueueWrites                       0                       # Number of vector instruction queue writes (Count)
system.cpu.vecInstQueueWakeupAccesses               0                       # Number of vector instruction queue wakeup accesses (Count)
system.cpu.intAluAccesses                    21858616                       # Number of integer alu accesses (Count)
system.cpu.fpAluAccesses                            0                       # Number of floating point alu accesses (Count)
system.cpu.vecAluAccesses                           0                       # Number of vector alu accesses (Count)
system.cpu.idleCycles                               0                       # Number of cycles IEW is idle (Cycle)
system.cpu.squashCycles                         13672                       # Number of cycles IEW is squashing (Cycle)
system.cpu.blockCycles                          73446                       # Number of cycles IEW is blocking (Cycle)
system.cpu.unblockCycles                         3483                       # Number of cycles IEW is unblocking (Cycle)
system.cpu.dispatchedInsts                   21640077                       # Number of instructions dispatched to IQ (Count)
system.cpu.dispSquashedInsts                      116                       # Number of squashed instructions skipped by dispatch (Count)
system.cpu.dispLoadInsts                      3836937                       # Number of dispatched load instructions (Count)
system.cpu.dispStoreInsts                     2589183                       # Number of dispatched store instructions (Count)
system.cpu.dispNonSpecInsts                        58                       # Number of dispatched non-speculative instructions (Count)
system.cpu.iqFullEvents                           347                       # Number of times the IQ has become full, causing a stall (Count)
system.cpu.lsqFullEvents                         2980                       # Number of times the LSQ has become full, causing a stall (Count)
system.cpu.memOrderViolationEvents                509                       # Number of memory order violations (Count)
system.cpu.predictedTakenIncorrect               4565                       # Number of branches that were predicted taken incorrectly (Count)
system.cpu.predictedNotTakenIncorrect            9393                       # Number of branches that were predicted not taken incorrectly (Count)
system.cpu.branchMispredicts                    13958                       # Number of branch mispredicts detected at execute (Count)
system.cpu.numInsts                          21479368                       # Number of executed instructions (Count)
system.cpu.numLoadInsts                       3812279                       # Number of load instructions executed (Count)
system.cpu.numSquashedInsts                     29627                       # Number of squashed instructions skipped in execute (Count)
system.cpu.numSwp                                   0                       # Number of swp insts executed (Count)
system.cpu.numNop                                   0                       # Number of nop insts executed (Count)
system.cpu.numRefs                            6344600                       # Number of memory reference insts executed (Count)
system.cpu.numBranches                        2378827                       # Number of branches executed (Count)
system.cpu.numStoreInsts                      2532321                       # Number of stores executed (Count)
system.cpu.numRate                           3.521025                       # Inst execution rate ((Count/Cycle))
system.cpu.instsToCommit                     21469526                       # Cumulative count of insts sent to commit (Count)
system.cpu.writebackCount                    21456620                       # Cumulative count of insts written-back (Count)
system.cpu.producerInst                      14655251                       # Number of instructions producing a value (Count)
system.cpu.consumerInst                      24698914                       # Number of instructions consuming a value (Count)
system.cpu.wbRate                            3.517296                       # Insts written-back per cycle ((Count/Cycle))
system.cpu.wbFanout                          0.593356                       # Average fanout of values written-back ((Count/Count))
system.cpu.timesIdled                             576                       # Number of times that the entire CPU went into an idle state and unscheduled itself (Count)
system.cpu.idleCycles                           65226                       # Total number of cycles that the CPU has spent unscheduled due to idling (Cycle)
system.cpu.committedInsts                    12198815                       # Number of Instructions Simulated (Count)
system.cpu.committedOps                      21108420                       # Number of Ops (including micro ops) Simulated (Count)
system.cpu.cpi                               0.500074                       # CPI: Cycles Per Instruction ((Cycle/Count))
system.cpu.totalCpi                          0.500074                       # CPI: Total CPI of All Threads ((Cycle/Count))
system.cpu.ipc                               1.999702                       # IPC: Instructions Per Cycle ((Count/Cycle))
system.cpu.totalIpc                          1.999702                       # IPC: Total IPC of All Threads ((Count/Cycle))
system.cpu.intRegfileReads                   34515952                       # Number of integer regfile reads (Count)
system.cpu.intRegfileWrites                  16556451                       # Number of integer regfile writes (Count)
system.cpu.ccRegfileReads                     9184352                       # number of cc regfile reads (Count)
system.cpu.ccRegfileWrites                    7060716                       # number of cc regfile writes (Count)
system.cpu.miscRegfileReads                  10450797                       # number of misc regfile reads (Count)
system.cpu.miscRegfileWrites                        6                       # number of misc regfile writes (Count)
system.cpu.MemDepUnit__0.insertedLoads        3836937                       # Number of loads inserted to the mem dependence unit. (Count)
system.cpu.MemDepUnit__0.insertedStores       2589183                       # Number of stores inserted to the mem dependence unit. (Count)
system.cpu.MemDepUnit__0.conflictingLoads       577095                       # Number of conflicting loads. (Count)
system.cpu.MemDepUnit__0.conflictingStores       203993                       # Number of conflicting stores. (Count)
system.cpu.MemDepUnit__1.insertedLoads              0                       # Number of loads inserted to the mem dependence unit. (Count)
system.cpu.MemDepUnit__1.insertedStores             0                       # Number of stores inserted to the mem dependence unit. (Count)
system.cpu.MemDepUnit__1.conflictingLoads            0                       # Number of conflicting loads. (Count)
system.cpu.MemDepUnit__1.conflictingStores            0                       # Number of conflicting stores. (Count)
system.cpu.MemDepUnit__2.insertedLoads              0                       # Number of loads inserted to the mem dependence unit. (Count)
system.cpu.MemDepUnit__2.insertedStores             0                       # Number of stores inserted to the mem dependence unit. (Count)
system.cpu.MemDepUnit__2.conflictingLoads            0                       # Number of conflicting loads. (Count)
system.cpu.MemDepUnit__2.conflictingStores            0                       # Number of conflicting stores. (Count)
system.cpu.MemDepUnit__3.insertedLoads              0                       # Number of loads inserted to the mem dependence unit. (Count)
system.cpu.MemDepUnit__3.insertedStores             0                       # Number of stores inserted to the mem dependence unit. (Count)
system.cpu.MemDepUnit__3.conflictingLoads            0                       # Number of conflicting loads. (Count)
system.cpu.MemDepUnit__3.conflictingStores            0                       # Number of conflicting stores. (Count)
system.cpu.branchPred.lookups                 2413503                       # Number of BP lookups (Count)
system.cpu.branchPred.condPredicted           1179997                       # Number of conditional branches predicted (Count)
system.cpu.branchPred.condIncorrect             13904                       # Number of conditional branches incorrect (Count)
system.cpu.branchPred.BTBLookups              1065237                       # Number of BTB lookups (Count)
system.cpu.branchPred.BTBHits                 1063949                       # Number of BTB hits (Count)
system.cpu.branchPred.BTBHitRatio            0.998791                       # BTB Hit Ratio (Ratio)
system.cpu.branchPred.RASUsed                  519470                       # Number of times the RAS was used to get a target. (Count)
system.cpu.branchPred.RASIncorrect                 19                       # Number of incorrect RAS predictions. (Count)
system.cpu.branchPred.indirectLookups          225993                       # Number of indirect predictor lookups. (Count)
system.cpu.branchPred.indirectHits             225468                       # Number of indirect target hits. (Count)
system.cpu.branchPred.indirectMisses              525                       # Number of indirect misses. (Count)
system.cpu.branchPred.indirectMispredicted          196                       # Number of mispredicted indirect branches. (Count)
system.cpu.branchPred.tage.longestMatchProviderCorrect       446855                       # Number of times TAGE Longest Match is the provider and the prediction is correct (Count)
system.cpu.branchPred.tage.altMatchProviderCorrect         1353                       # Number of times TAGE Alt Match is the provider and the prediction is correct (Count)
system.cpu.branchPred.tage.bimodalAltMatchProviderCorrect          165                       # Number of times TAGE Alt Match is the bimodal and it is the provider and the prediction is correct (Count)
system.cpu.branchPred.tage.bimodalProviderCorrect       697427                       # Number of times there are no hits on the TAGE tables and the bimodal prediction is correct (Count)
system.cpu.branchPred.tage.longestMatchProviderWrong        10971                       # Number of times TAGE Longest Match is the provider and the prediction is wrong (Count)
system.cpu.branchPred.tage.altMatchProviderWrong          864                       # Number of times TAGE Alt Match is the provider and the prediction is wrong (Count)
system.cpu.branchPred.tage.bimodalAltMatchProviderWrong           70                       # Number of times TAGE Alt Match is the bimodal and it is the provider and the prediction is wrong (Count)
system.cpu.branchPred.tage.bimodalProviderWrong          724                       # Number of times there are no hits on the TAGE tables and the bimodal prediction is wrong (Count)
system.cpu.branchPred.tage.altMatchProviderWouldHaveHit         2355                       # Number of times TAGE Longest Match is the provider, the prediction is wrong and Alt Match prediction was correct (Count)
system.cpu.branchPred.tage.longestMatchProviderWouldHaveHit          462                       # Number of times TAGE Alt Match is the provider, the prediction is wrong and Longest Match prediction was correct (Count)
system.cpu.branchPred.tage.longestMatchProvider::0            0                       # TAGE provider for longest match (Count)
system.cpu.branchPred.tage.longestMatchProvider::1       301991                       # TAGE provider for longest match (Count)
system.cpu.branchPred.tage.longestMatchProvider::2        11693                       # TAGE provider for longest match (Count)
system.cpu.branchPred.tage.longestMatchProvider::3         8028                       # TAGE provider for longest match (Count)
system.cpu.branchPred.tage.longestMatchProvider::4         6544                       # TAGE provider for longest match (Count)
system.cpu.branchPred.tage.longestMatchProvider::5         5015                       # TAGE provider for longest match (Count)
system.cpu.branchPred.tage.longestMatchProvider::6         8203                       # TAGE provider for longest match (Count)
system.cpu.branchPred.tage.longestMatchProvider::7        17432                       # TAGE provider for longest match (Count)
system.cpu.branchPred.tage.longestMatchProvider::8         9772                       # TAGE provider for longest match (Count)
system.cpu.branchPred.tage.longestMatchProvider::9        91365                       # TAGE provider for longest match (Count)
system.cpu.branchPred.tage.altMatchProvider::0       329197                       # TAGE provider for alt match (Count)
system.cpu.branchPred.tage.altMatchProvider::1         5065                       # TAGE provider for alt match (Count)
system.cpu.branchPred.tage.altMatchProvider::2         7645                       # TAGE provider for alt match (Count)
system.cpu.branchPred.tage.altMatchProvider::3          598                       # TAGE provider for alt match (Count)
system.cpu.branchPred.tage.altMatchProvider::4         4583                       # TAGE provider for alt match (Count)
system.cpu.branchPred.tage.altMatchProvider::5         8264                       # TAGE provider for alt match (Count)
system.cpu.branchPred.tage.altMatchProvider::6        11967                       # TAGE provider for alt match (Count)
system.cpu.branchPred.tage.altMatchProvider::7        20763                       # TAGE provider for alt match (Count)
system.cpu.branchPred.tage.altMatchProvider::8        71961                       # TAGE provider for alt match (Count)
system.cpu.branchPred.tage.altMatchProvider::9            0                       # TAGE provider for alt match (Count)
system.cpu.commit.commitSquashedInsts          531301                       # The number of squashed insts skipped by commit (Count)
system.cpu.commit.commitNonSpecStalls               7                       # The number of times commit has been forced to stall to communicate backwards (Count)
system.cpu.commit.branchMispredicts             13222                       # The number of times a branch was mispredicted (Count)
system.cpu.commit.numCommittedDist::samples      5960207                       # Number of insts commited each cycle (Count)
system.cpu.commit.numCommittedDist::mean     3.541558                       # Number of insts commited each cycle (Count)
system.cpu.commit.numCommittedDist::stdev     2.920245                       # Number of insts commited each cycle (Count)
system.cpu.commit.numCommittedDist::underflows            0      0.00%      0.00% # Number of insts commited each cycle (Count)
system.cpu.commit.numCommittedDist::0         1008108     16.91%     16.91% # Number of insts commited each cycle (Count)
system.cpu.commit.numCommittedDist::1         1150805     19.31%     36.22% # Number of insts commited each cycle (Count)
system.cpu.commit.numCommittedDist::2          465294      7.81%     44.03% # Number of insts commited each cycle (Count)
system.cpu.commit.numCommittedDist::3          823608     13.82%     57.85% # Number of insts commited each cycle (Count)
system.cpu.commit.numCommittedDist::4          434348      7.29%     65.13% # Number of insts commited each cycle (Count)
system.cpu.commit.numCommittedDist::5          285919      4.80%     69.93% # Number of insts commited each cycle (Count)
system.cpu.commit.numCommittedDist::6          291550      4.89%     74.82% # Number of insts commited each cycle (Count)
system.cpu.commit.numCommittedDist::7          364684      6.12%     80.94% # Number of insts commited each cycle (Count)
system.cpu.commit.numCommittedDist::8         1135891     19.06%    100.00% # Number of insts commited each cycle (Count)
system.cpu.commit.numCommittedDist::overflows            0      0.00%    100.00% # Number of insts commited each cycle (Count)
system.cpu.commit.numCommittedDist::min_value            0                       # Number of insts commited each cycle (Count)
system.cpu.commit.numCommittedDist::max_value            8                       # Number of insts commited each cycle (Count)
system.cpu.commit.numCommittedDist::total      5960207                       # Number of insts commited each cycle (Count)
system.cpu.commit.instsCommitted             12198815                       # Number of instructions committed (Count)
system.cpu.commit.opsCommitted               21108420                       # Number of ops (including micro ops) committed (Count)
system.cpu.commit.memRefs                     6204840                       # Number of memory references committed (Count)
system.cpu.commit.loads                       3739631                       # Number of loads committed (Count)
system.cpu.commit.amos                              0                       # Number of atomic instructions committed (Count)
system.cpu.commit.membars                           2                       # Number of memory barriers committed (Count)
system.cpu.commit.branches                    2348513                       # Number of branches committed (Count)
system.cpu.commit.vectorInstructions                0                       # Number of committed Vector instructions. (Count)
system.cpu.commit.floating                          0                       # Number of committed floating point instructions. (Count)
system.cpu.commit.integer                    21107084                       # Number of committed integer instructions. (Count)
system.cpu.commit.functionCalls                513531                       # Number of function calls committed. (Count)
system.cpu.commit.committedInstType_0::No_OpClass           29      0.00%      0.00% # Class of committed instruction (Count)
system.cpu.commit.committedInstType_0::IntAlu     14903483     70.60%     70.60% # Class of committed instruction (Count)
system.cpu.commit.committedInstType_0::IntMult           47      0.00%     70.60% # Class of committed instruction (Count)
system.cpu.commit.committedInstType_0::IntDiv           21      0.00%     70.60% # Class of committed instruction (Count)
system.cpu.commit.committedInstType_0::FloatAdd            0      0.00%     70.60% # Class of committed instruction (Count)
system.cpu.commit.committedInstType_0::FloatCmp            0      0.00%     70.60% # Class of committed instruction (Count)
system.cpu.commit.committedInstType_0::FloatCvt            0      0.00%     70.60% # Class of committed instruction (Count)
system.cpu.commit.committedInstType_0::FloatMult            0      0.00%     70.60% # Class of committed instruction (Count)
system.cpu.commit.committedInstType_0::FloatMultAcc            0      0.00%     70.60% # Class of committed instruction (Count)
system.cpu.commit.committedInstType_0::FloatDiv            0      0.00%     70.60% # Class of committed instruction (Count)
system.cpu.commit.committedInstType_0::FloatMisc            0      0.00%     70.60% # Class of committed instruction (Count)
system.cpu.commit.committedInstType_0::FloatSqrt            0      0.00%     70.60% # Class of committed instruction (Count)
system.cpu.commit.committedInstType_0::SimdAdd            0      0.00%     70.60% # Class of committed instruction (Count)
system.cpu.commit.committedInstType_0::SimdAddAcc            0      0.00%     70.60% # Class of committed instruction (Count)
system.cpu.commit.committedInstType_0::SimdAlu            0      0.00%     70.60% # Class of committed instruction (Count)
system.cpu.commit.committedInstType_0::SimdCmp            0      0.00%     70.60% # Class of committed instruction (Count)
system.cpu.commit.committedInstType_0::SimdCvt            0      0.00%     70.60% # Class of committed instruction (Count)
system.cpu.commit.committedInstType_0::SimdMisc            0      0.00%     70.60% # Class of committed instruction (Count)
system.cpu.commit.committedInstType_0::SimdMult            0      0.00%     70.60% # Class of committed instruction (Count)
system.cpu.commit.committedInstType_0::SimdMultAcc            0      0.00%     70.60% # Class of committed instruction (Count)
system.cpu.commit.committedInstType_0::SimdShift            0      0.00%     70.60% # Class of committed instruction (Count)
system.cpu.commit.committedInstType_0::SimdShiftAcc            0      0.00%     70.60% # Class of committed instruction (Count)
system.cpu.commit.committedInstType_0::SimdDiv            0      0.00%     70.60% # Class of committed instruction (Count)
system.cpu.commit.committedInstType_0::SimdSqrt            0      0.00%     70.60% # Class of committed instruction (Count)
system.cpu.commit.committedInstType_0::SimdFloatAdd            0      0.00%     70.60% # Class of committed instruction (Count)
system.cpu.commit.committedInstType_0::SimdFloatAlu            0      0.00%     70.60% # Class of committed instruction (Count)
system.cpu.commit.committedInstType_0::SimdFloatCmp            0      0.00%     70.60% # Class of committed instruction (Count)
system.cpu.commit.committedInstType_0::SimdFloatCvt            0      0.00%     70.60% # Class of committed instruction (Count)
system.cpu.commit.committedInstType_0::SimdFloatDiv            0      0.00%     70.60% # Class of committed instruction (Count)
system.cpu.commit.committedInstType_0::SimdFloatMisc            0      0.00%     70.60% # Class of committed instruction (Count)
system.cpu.commit.committedInstType_0::SimdFloatMult            0      0.00%     70.60% # Class of committed instruction (Count)
system.cpu.commit.committedInstType_0::SimdFloatMultAcc            0      0.00%     70.60% # Class of committed instruction (Count)
system.cpu.commit.committedInstType_0::SimdFloatSqrt            0      0.00%     70.60% # Class of committed instruction (Count)
system.cpu.commit.committedInstType_0::SimdReduceAdd            0      0.00%     70.60% # Class of committed instruction (Count)
system.cpu.commit.committedInstType_0::SimdReduceAlu            0      0.00%     70.60% # Class of committed instruction (Count)
system.cpu.commit.committedInstType_0::SimdReduceCmp            0      0.00%     70.60% # Class of committed instruction (Count)
system.cpu.commit.committedInstType_0::SimdFloatReduceAdd            0      0.00%     70.60% # Class of committed instruction (Count)
system.cpu.commit.committedInstType_0::SimdFloatReduceCmp            0      0.00%     70.60% # Class of committed instruction (Count)
system.cpu.commit.committedInstType_0::SimdAes            0      0.00%     70.60% # Class of committed instruction (Count)
system.cpu.commit.committedInstType_0::SimdAesMix            0      0.00%     70.60% # Class of committed instruction (Count)
system.cpu.commit.committedInstType_0::SimdSha1Hash            0      0.00%     70.60% # Class of committed instruction (Count)
system.cpu.commit.committedInstType_0::SimdSha1Hash2            0      0.00%     70.60% # Class of committed instruction (Count)
system.cpu.commit.committedInstType_0::SimdSha256Hash            0      0.00%     70.60% # Class of committed instruction (Count)
system.cpu.commit.committedInstType_0::SimdSha256Hash2            0      0.00%     70.60% # Class of committed instruction (Count)
system.cpu.commit.committedInstType_0::SimdShaSigma2            0      0.00%     70.60% # Class of committed instruction (Count)
system.cpu.commit.committedInstType_0::SimdShaSigma3            0      0.00%     70.60% # Class of committed instruction (Count)
system.cpu.commit.committedInstType_0::SimdPredAlu            0      0.00%     70.60% # Class of committed instruction (Count)
system.cpu.commit.committedInstType_0::MemRead      3739631     17.72%     88.32% # Class of committed instruction (Count)
system.cpu.commit.committedInstType_0::MemWrite      2465209     11.68%    100.00% # Class of committed instruction (Count)
system.cpu.commit.committedInstType_0::FloatMemRead            0      0.00%    100.00% # Class of committed instruction (Count)
system.cpu.commit.committedInstType_0::FloatMemWrite            0      0.00%    100.00% # Class of committed instruction (Count)
system.cpu.commit.committedInstType_0::IprAccess            0      0.00%    100.00% # Class of committed instruction (Count)
system.cpu.commit.committedInstType_0::InstPrefetch            0      0.00%    100.00% # Class of committed instruction (Count)
system.cpu.commit.committedInstType_0::total     21108420                       # Class of committed instruction (Count)
system.cpu.commit.commitEligibleSamples       1135891                       # number cycles where commit BW limit reached (Cycle)
system.cpu.dcache.demandHits::cpu.data        3979617                       # number of demand (read+write) hits (Count)
system.cpu.dcache.demandHits::total           3979617                       # number of demand (read+write) hits (Count)
system.cpu.dcache.overallHits::cpu.data       3979617                       # number of overall hits (Count)
system.cpu.dcache.overallHits::total          3979617                       # number of overall hits (Count)
system.cpu.dcache.demandMisses::cpu.data        26928                       # number of demand (read+write) misses (Count)
system.cpu.dcache.demandMisses::total           26928                       # number of demand (read+write) misses (Count)
system.cpu.dcache.overallMisses::cpu.data        26928                       # number of overall misses (Count)
system.cpu.dcache.overallMisses::total          26928                       # number of overall misses (Count)
system.cpu.dcache.demandMissLatency::cpu.data    712892499                       # number of demand (read+write) miss ticks (Tick)
system.cpu.dcache.demandMissLatency::total    712892499                       # number of demand (read+write) miss ticks (Tick)
system.cpu.dcache.overallMissLatency::cpu.data    712892499                       # number of overall miss ticks (Tick)
system.cpu.dcache.overallMissLatency::total    712892499                       # number of overall miss ticks (Tick)
system.cpu.dcache.demandAccesses::cpu.data      4006545                       # number of demand (read+write) accesses (Count)
system.cpu.dcache.demandAccesses::total       4006545                       # number of demand (read+write) accesses (Count)
system.cpu.dcache.overallAccesses::cpu.data      4006545                       # number of overall (read+write) accesses (Count)
system.cpu.dcache.overallAccesses::total      4006545                       # number of overall (read+write) accesses (Count)
system.cpu.dcache.demandMissRate::cpu.data     0.006721                       # miss rate for demand accesses (Ratio)
system.cpu.dcache.demandMissRate::total      0.006721                       # miss rate for demand accesses (Ratio)
system.cpu.dcache.overallMissRate::cpu.data     0.006721                       # miss rate for overall accesses (Ratio)
system.cpu.dcache.overallMissRate::total     0.006721                       # miss rate for overall accesses (Ratio)
system.cpu.dcache.demandAvgMissLatency::cpu.data 26474.023284                       # average overall miss latency ((Cycle/Count))
system.cpu.dcache.demandAvgMissLatency::total 26474.023284                       # average overall miss latency ((Cycle/Count))
system.cpu.dcache.overallAvgMissLatency::cpu.data 26474.023284                       # average overall miss latency ((Cycle/Count))
system.cpu.dcache.overallAvgMissLatency::total 26474.023284                       # average overall miss latency ((Cycle/Count))
system.cpu.dcache.blockedCycles::no_mshrs          289                       # number of cycles access was blocked (Cycle)
system.cpu.dcache.blockedCycles::no_targets            0                       # number of cycles access was blocked (Cycle)
system.cpu.dcache.blockedCauses::no_mshrs            8                       # number of times access was blocked (Count)
system.cpu.dcache.blockedCauses::no_targets            0                       # number of times access was blocked (Count)
system.cpu.dcache.avgBlocked::no_mshrs      36.125000                       # average number of cycles each access was blocked ((Cycle/Count))
system.cpu.dcache.avgBlocked::no_targets          nan                       # average number of cycles each access was blocked ((Cycle/Count))
system.cpu.dcache.writebacks::writebacks         2694                       # number of writebacks (Count)
system.cpu.dcache.writebacks::total              2694                       # number of writebacks (Count)
system.cpu.dcache.demandMshrHits::cpu.data         7307                       # number of demand (read+write) MSHR hits (Count)
system.cpu.dcache.demandMshrHits::total          7307                       # number of demand (read+write) MSHR hits (Count)
system.cpu.dcache.overallMshrHits::cpu.data         7307                       # number of overall MSHR hits (Count)
system.cpu.dcache.overallMshrHits::total         7307                       # number of overall MSHR hits (Count)
system.cpu.dcache.demandMshrMisses::cpu.data        19621                       # number of demand (read+write) MSHR misses (Count)
system.cpu.dcache.demandMshrMisses::total        19621                       # number of demand (read+write) MSHR misses (Count)
system.cpu.dcache.overallMshrMisses::cpu.data        19621                       # number of overall MSHR misses (Count)
system.cpu.dcache.overallMshrMisses::total        19621                       # number of overall MSHR misses (Count)
system.cpu.dcache.demandMshrMissLatency::cpu.data    409504999                       # number of demand (read+write) MSHR miss ticks (Tick)
system.cpu.dcache.demandMshrMissLatency::total    409504999                       # number of demand (read+write) MSHR miss ticks (Tick)
system.cpu.dcache.overallMshrMissLatency::cpu.data    409504999                       # number of overall MSHR miss ticks (Tick)
system.cpu.dcache.overallMshrMissLatency::total    409504999                       # number of overall MSHR miss ticks (Tick)
system.cpu.dcache.demandMshrMissRate::cpu.data     0.004897                       # mshr miss ratio for demand accesses (Ratio)
system.cpu.dcache.demandMshrMissRate::total     0.004897                       # mshr miss ratio for demand accesses (Ratio)
system.cpu.dcache.overallMshrMissRate::cpu.data     0.004897                       # mshr miss ratio for overall accesses (Ratio)
system.cpu.dcache.overallMshrMissRate::total     0.004897                       # mshr miss ratio for overall accesses (Ratio)
system.cpu.dcache.demandAvgMshrMissLatency::cpu.data 20870.750675                       # average overall mshr miss latency ((Cycle/Count))
system.cpu.dcache.demandAvgMshrMissLatency::total 20870.750675                       # average overall mshr miss latency ((Cycle/Count))
system.cpu.dcache.overallAvgMshrMissLatency::cpu.data 20870.750675                       # average overall mshr miss latency ((Cycle/Count))
system.cpu.dcache.overallAvgMshrMissLatency::total 20870.750675                       # average overall mshr miss latency ((Cycle/Count))
system.cpu.dcache.replacements                  19104                       # number of replacements (Count)
system.cpu.dcache.ReadReq.hits::cpu.data      1515185                       # number of ReadReq hits (Count)
system.cpu.dcache.ReadReq.hits::total         1515185                       # number of ReadReq hits (Count)
system.cpu.dcache.ReadReq.misses::cpu.data        26138                       # number of ReadReq misses (Count)
system.cpu.dcache.ReadReq.misses::total         26138                       # number of ReadReq misses (Count)
system.cpu.dcache.ReadReq.missLatency::cpu.data    664550000                       # number of ReadReq miss ticks (Tick)
system.cpu.dcache.ReadReq.missLatency::total    664550000                       # number of ReadReq miss ticks (Tick)
system.cpu.dcache.ReadReq.accesses::cpu.data      1541323                       # number of ReadReq accesses(hits+misses) (Count)
system.cpu.dcache.ReadReq.accesses::total      1541323                       # number of ReadReq accesses(hits+misses) (Count)
system.cpu.dcache.ReadReq.missRate::cpu.data     0.016958                       # miss rate for ReadReq accesses (Ratio)
system.cpu.dcache.ReadReq.missRate::total     0.016958                       # miss rate for ReadReq accesses (Ratio)
system.cpu.dcache.ReadReq.avgMissLatency::cpu.data 25424.669064                       # average ReadReq miss latency ((Tick/Count))
system.cpu.dcache.ReadReq.avgMissLatency::total 25424.669064                       # average ReadReq miss latency ((Tick/Count))
system.cpu.dcache.ReadReq.mshrHits::cpu.data         7304                       # number of ReadReq MSHR hits (Count)
system.cpu.dcache.ReadReq.mshrHits::total         7304                       # number of ReadReq MSHR hits (Count)
system.cpu.dcache.ReadReq.mshrMisses::cpu.data        18834                       # number of ReadReq MSHR misses (Count)
system.cpu.dcache.ReadReq.mshrMisses::total        18834                       # number of ReadReq MSHR misses (Count)
system.cpu.dcache.ReadReq.mshrMissLatency::cpu.data    362116500                       # number of ReadReq MSHR miss ticks (Tick)
system.cpu.dcache.ReadReq.mshrMissLatency::total    362116500                       # number of ReadReq MSHR miss ticks (Tick)
system.cpu.dcache.ReadReq.mshrMissRate::cpu.data     0.012219                       # mshr miss rate for ReadReq accesses (Ratio)
system.cpu.dcache.ReadReq.mshrMissRate::total     0.012219                       # mshr miss rate for ReadReq accesses (Ratio)
system.cpu.dcache.ReadReq.avgMshrMissLatency::cpu.data 19226.744186                       # average ReadReq mshr miss latency ((Tick/Count))
system.cpu.dcache.ReadReq.avgMshrMissLatency::total 19226.744186                       # average ReadReq mshr miss latency ((Tick/Count))
system.cpu.dcache.WriteReq.hits::cpu.data      2464432                       # number of WriteReq hits (Count)
system.cpu.dcache.WriteReq.hits::total        2464432                       # number of WriteReq hits (Count)
system.cpu.dcache.WriteReq.misses::cpu.data          790                       # number of WriteReq misses (Count)
system.cpu.dcache.WriteReq.misses::total          790                       # number of WriteReq misses (Count)
system.cpu.dcache.WriteReq.missLatency::cpu.data     48342499                       # number of WriteReq miss ticks (Tick)
system.cpu.dcache.WriteReq.missLatency::total     48342499                       # number of WriteReq miss ticks (Tick)
system.cpu.dcache.WriteReq.accesses::cpu.data      2465222                       # number of WriteReq accesses(hits+misses) (Count)
system.cpu.dcache.WriteReq.accesses::total      2465222                       # number of WriteReq accesses(hits+misses) (Count)
system.cpu.dcache.WriteReq.missRate::cpu.data     0.000320                       # miss rate for WriteReq accesses (Ratio)
system.cpu.dcache.WriteReq.missRate::total     0.000320                       # miss rate for WriteReq accesses (Ratio)
system.cpu.dcache.WriteReq.avgMissLatency::cpu.data 61193.036709                       # average WriteReq miss latency ((Tick/Count))
system.cpu.dcache.WriteReq.avgMissLatency::total 61193.036709                       # average WriteReq miss latency ((Tick/Count))
system.cpu.dcache.WriteReq.mshrHits::cpu.data            3                       # number of WriteReq MSHR hits (Count)
system.cpu.dcache.WriteReq.mshrHits::total            3                       # number of WriteReq MSHR hits (Count)
system.cpu.dcache.WriteReq.mshrMisses::cpu.data          787                       # number of WriteReq MSHR misses (Count)
system.cpu.dcache.WriteReq.mshrMisses::total          787                       # number of WriteReq MSHR misses (Count)
system.cpu.dcache.WriteReq.mshrMissLatency::cpu.data     47388499                       # number of WriteReq MSHR miss ticks (Tick)
system.cpu.dcache.WriteReq.mshrMissLatency::total     47388499                       # number of WriteReq MSHR miss ticks (Tick)
system.cpu.dcache.WriteReq.mshrMissRate::cpu.data     0.000319                       # mshr miss rate for WriteReq accesses (Ratio)
system.cpu.dcache.WriteReq.mshrMissRate::total     0.000319                       # mshr miss rate for WriteReq accesses (Ratio)
system.cpu.dcache.WriteReq.avgMshrMissLatency::cpu.data 60214.102922                       # average WriteReq mshr miss latency ((Tick/Count))
system.cpu.dcache.WriteReq.avgMshrMissLatency::total 60214.102922                       # average WriteReq mshr miss latency ((Tick/Count))
system.cpu.dcache.power_state.pwrStateResidencyTicks::UNDEFINED   3050157500                       # Cumulative time (in ticks) in various power states (Tick)
system.cpu.dcache.tags.tagsInUse           504.033143                       # Average ticks per tags in use ((Tick/Count))
system.cpu.dcache.tags.totalRefs              3999240                       # Total number of references to valid blocks. (Count)
system.cpu.dcache.tags.sampledRefs              19616                       # Sample count of references to valid blocks. (Count)
system.cpu.dcache.tags.avgRefs             203.876427                       # Average number of references to valid blocks. ((Count/Count))
system.cpu.dcache.tags.warmupTick              176500                       # The tick when the warmup percentage was hit. (Tick)
system.cpu.dcache.tags.occupancies::cpu.data   504.033143                       # Average occupied blocks per tick, per requestor ((Count/Tick))
system.cpu.dcache.tags.avgOccs::cpu.data     0.984440                       # Average percentage of cache occupancy ((Ratio/Tick))
system.cpu.dcache.tags.avgOccs::total        0.984440                       # Average percentage of cache occupancy ((Ratio/Tick))
system.cpu.dcache.tags.occupanciesTaskId::1024          512                       # Occupied blocks per task id (Count)
system.cpu.dcache.tags.ageTaskId_1024::0           66                       # Occupied blocks per task id, per block age (Count)
system.cpu.dcache.tags.ageTaskId_1024::1          438                       # Occupied blocks per task id, per block age (Count)
system.cpu.dcache.tags.ageTaskId_1024::2            3                       # Occupied blocks per task id, per block age (Count)
system.cpu.dcache.tags.ageTaskId_1024::3            5                       # Occupied blocks per task id, per block age (Count)
system.cpu.dcache.tags.ratioOccsTaskId::1024            1                       # Ratio of occupied blocks and all blocks, per task id (Ratio)
system.cpu.dcache.tags.tagAccesses           16045796                       # Number of tag accesses (Count)
system.cpu.dcache.tags.dataAccesses          16045796                       # Number of data accesses (Count)
system.cpu.dcache.tags.power_state.pwrStateResidencyTicks::UNDEFINED   3050157500                       # Cumulative time (in ticks) in various power states (Tick)
system.cpu.decode.idleCycles                  1674122                       # Number of cycles decode is idle (Cycle)
system.cpu.decode.blockedCycles                562803                       # Number of cycles decode is blocked (Cycle)
system.cpu.decode.runCycles                   3687154                       # Number of cycles decode is running (Cycle)
system.cpu.decode.unblockCycles                 97339                       # Number of cycles decode is unblocking (Cycle)
system.cpu.decode.squashCycles                  13672                       # Number of cycles decode is squashing (Cycle)
system.cpu.decode.branchResolved              1058237                       # Number of times decode resolved a branch (Count)
system.cpu.decode.branchMispred                   811                       # Number of times decode detected a branch misprediction (Count)
system.cpu.decode.decodedInsts               21775557                       # Number of instructions handled by decode (Count)
system.cpu.decode.squashedInsts                  3526                       # Number of squashed instructions handled by decode (Count)
system.cpu.dtb_walker_cache.blockedCycles::no_mshrs            0                       # number of cycles access was blocked (Cycle)
system.cpu.dtb_walker_cache.blockedCycles::no_targets            0                       # number of cycles access was blocked (Cycle)
system.cpu.dtb_walker_cache.blockedCauses::no_mshrs            0                       # number of times access was blocked (Count)
system.cpu.dtb_walker_cache.blockedCauses::no_targets            0                       # number of times access was blocked (Count)
system.cpu.dtb_walker_cache.avgBlocked::no_mshrs          nan                       # average number of cycles each access was blocked ((Cycle/Count))
system.cpu.dtb_walker_cache.avgBlocked::no_targets          nan                       # average number of cycles each access was blocked ((Cycle/Count))
system.cpu.dtb_walker_cache.replacements            0                       # number of replacements (Count)
system.cpu.dtb_walker_cache.power_state.pwrStateResidencyTicks::UNDEFINED   3050157500                       # Cumulative time (in ticks) in various power states (Tick)
system.cpu.dtb_walker_cache.tags.tagsInUse            0                       # Average ticks per tags in use ((Tick/Count))
system.cpu.dtb_walker_cache.tags.totalRefs            0                       # Total number of references to valid blocks. (Count)
system.cpu.dtb_walker_cache.tags.sampledRefs            0                       # Sample count of references to valid blocks. (Count)
system.cpu.dtb_walker_cache.tags.avgRefs          nan                       # Average number of references to valid blocks. ((Count/Count))
system.cpu.dtb_walker_cache.tags.warmupTick            0                       # The tick when the warmup percentage was hit. (Tick)
system.cpu.dtb_walker_cache.tags.tagAccesses            0                       # Number of tag accesses (Count)
system.cpu.dtb_walker_cache.tags.dataAccesses            0                       # Number of data accesses (Count)
system.cpu.dtb_walker_cache.tags.power_state.pwrStateResidencyTicks::UNDEFINED   3050157500                       # Cumulative time (in ticks) in various power states (Tick)
system.cpu.fetch.icacheStallCycles            1803132                       # Number of cycles fetch is stalled on an Icache miss (Cycle)
system.cpu.fetch.insts                       12625797                       # Number of instructions fetch has processed (Count)
system.cpu.fetch.branches                     2413503                       # Number of branches that fetch encountered (Count)
system.cpu.fetch.predictedBranches            1808887                       # Number of branches that fetch has predicted taken (Count)
system.cpu.fetch.cycles                       4216304                       # Number of cycles fetch has run and was not squashing or blocked (Cycle)
system.cpu.fetch.squashCycles                   28942                       # Number of cycles fetch has spent squashing (Cycle)
system.cpu.fetch.miscStallCycles                  142                       # Number of cycles fetch has spent waiting on interrupts, or bad addresses, or out of MSHRs (Cycle)
system.cpu.fetch.pendingTrapStallCycles           951                       # Number of stall cycles due to pending traps (Cycle)
system.cpu.fetch.pendingQuiesceStallCycles           31                       # Number of stall cycles due to pending quiesce instructions (Cycle)
system.cpu.fetch.icacheWaitRetryStallCycles           59                       # Number of stall cycles due to full MSHR (Cycle)
system.cpu.fetch.cacheLines                   1768309                       # Number of cache lines fetched (Count)
system.cpu.fetch.icacheSquashes                  5754                       # Number of outstanding Icache misses that were squashed (Count)
system.cpu.fetch.nisnDist::samples            6035090                       # Number of instructions fetched each cycle (Total) (Count)
system.cpu.fetch.nisnDist::mean              3.616264                       # Number of instructions fetched each cycle (Total) (Count)
system.cpu.fetch.nisnDist::stdev             3.400136                       # Number of instructions fetched each cycle (Total) (Count)
system.cpu.fetch.nisnDist::underflows               0      0.00%      0.00% # Number of instructions fetched each cycle (Total) (Count)
system.cpu.fetch.nisnDist::0                  2136217     35.40%     35.40% # Number of instructions fetched each cycle (Total) (Count)
system.cpu.fetch.nisnDist::1                   348950      5.78%     41.18% # Number of instructions fetched each cycle (Total) (Count)
system.cpu.fetch.nisnDist::2                   395163      6.55%     47.73% # Number of instructions fetched each cycle (Total) (Count)
system.cpu.fetch.nisnDist::3                   240494      3.98%     51.71% # Number of instructions fetched each cycle (Total) (Count)
system.cpu.fetch.nisnDist::4                   549705      9.11%     60.82% # Number of instructions fetched each cycle (Total) (Count)
system.cpu.fetch.nisnDist::5                   205044      3.40%     64.22% # Number of instructions fetched each cycle (Total) (Count)
system.cpu.fetch.nisnDist::6                   258309      4.28%     68.50% # Number of instructions fetched each cycle (Total) (Count)
system.cpu.fetch.nisnDist::7                    19840      0.33%     68.83% # Number of instructions fetched each cycle (Total) (Count)
system.cpu.fetch.nisnDist::8                  1881368     31.17%    100.00% # Number of instructions fetched each cycle (Total) (Count)
system.cpu.fetch.nisnDist::overflows                0      0.00%    100.00% # Number of instructions fetched each cycle (Total) (Count)
system.cpu.fetch.nisnDist::min_value                0                       # Number of instructions fetched each cycle (Total) (Count)
system.cpu.fetch.nisnDist::max_value                8                       # Number of instructions fetched each cycle (Total) (Count)
system.cpu.fetch.nisnDist::total              6035090                       # Number of instructions fetched each cycle (Total) (Count)
system.cpu.fetch.branchRate                  0.395636                       # Number of branch fetches per cycle (Ratio)
system.cpu.fetch.rate                        2.069696                       # Number of inst fetches per cycle ((Count/Cycle))
system.cpu.icache.demandHits::cpu.inst        1767151                       # number of demand (read+write) hits (Count)
system.cpu.icache.demandHits::total           1767151                       # number of demand (read+write) hits (Count)
system.cpu.icache.overallHits::cpu.inst       1767151                       # number of overall hits (Count)
system.cpu.icache.overallHits::total          1767151                       # number of overall hits (Count)
system.cpu.icache.demandMisses::cpu.inst         1158                       # number of demand (read+write) misses (Count)
system.cpu.icache.demandMisses::total            1158                       # number of demand (read+write) misses (Count)
system.cpu.icache.overallMisses::cpu.inst         1158                       # number of overall misses (Count)
system.cpu.icache.overallMisses::total           1158                       # number of overall misses (Count)
system.cpu.icache.demandMissLatency::cpu.inst     85486500                       # number of demand (read+write) miss ticks (Tick)
system.cpu.icache.demandMissLatency::total     85486500                       # number of demand (read+write) miss ticks (Tick)
system.cpu.icache.overallMissLatency::cpu.inst     85486500                       # number of overall miss ticks (Tick)
system.cpu.icache.overallMissLatency::total     85486500                       # number of overall miss ticks (Tick)
system.cpu.icache.demandAccesses::cpu.inst      1768309                       # number of demand (read+write) accesses (Count)
system.cpu.icache.demandAccesses::total       1768309                       # number of demand (read+write) accesses (Count)
system.cpu.icache.overallAccesses::cpu.inst      1768309                       # number of overall (read+write) accesses (Count)
system.cpu.icache.overallAccesses::total      1768309                       # number of overall (read+write) accesses (Count)
system.cpu.icache.demandMissRate::cpu.inst     0.000655                       # miss rate for demand accesses (Ratio)
system.cpu.icache.demandMissRate::total      0.000655                       # miss rate for demand accesses (Ratio)
system.cpu.icache.overallMissRate::cpu.inst     0.000655                       # miss rate for overall accesses (Ratio)
system.cpu.icache.overallMissRate::total     0.000655                       # miss rate for overall accesses (Ratio)
system.cpu.icache.demandAvgMissLatency::cpu.inst 73822.538860                       # average overall miss latency ((Cycle/Count))
system.cpu.icache.demandAvgMissLatency::total 73822.538860                       # average overall miss latency ((Cycle/Count))
system.cpu.icache.overallAvgMissLatency::cpu.inst 73822.538860                       # average overall miss latency ((Cycle/Count))
system.cpu.icache.overallAvgMissLatency::total 73822.538860                       # average overall miss latency ((Cycle/Count))
system.cpu.icache.blockedCycles::no_mshrs          236                       # number of cycles access was blocked (Cycle)
system.cpu.icache.blockedCycles::no_targets            0                       # number of cycles access was blocked (Cycle)
system.cpu.icache.blockedCauses::no_mshrs            5                       # number of times access was blocked (Count)
system.cpu.icache.blockedCauses::no_targets            0                       # number of times access was blocked (Count)
system.cpu.icache.avgBlocked::no_mshrs      47.200000                       # average number of cycles each access was blocked ((Cycle/Count))
system.cpu.icache.avgBlocked::no_targets          nan                       # average number of cycles each access was blocked ((Cycle/Count))
system.cpu.icache.writebacks::writebacks          360                       # number of writebacks (Count)
system.cpu.icache.writebacks::total               360                       # number of writebacks (Count)
system.cpu.icache.demandMshrHits::cpu.inst          288                       # number of demand (read+write) MSHR hits (Count)
system.cpu.icache.demandMshrHits::total           288                       # number of demand (read+write) MSHR hits (Count)
system.cpu.icache.overallMshrHits::cpu.inst          288                       # number of overall MSHR hits (Count)
system.cpu.icache.overallMshrHits::total          288                       # number of overall MSHR hits (Count)
system.cpu.icache.demandMshrMisses::cpu.inst          870                       # number of demand (read+write) MSHR misses (Count)
system.cpu.icache.demandMshrMisses::total          870                       # number of demand (read+write) MSHR misses (Count)
system.cpu.icache.overallMshrMisses::cpu.inst          870                       # number of overall MSHR misses (Count)
system.cpu.icache.overallMshrMisses::total          870                       # number of overall MSHR misses (Count)
system.cpu.icache.demandMshrMissLatency::cpu.inst     68237500                       # number of demand (read+write) MSHR miss ticks (Tick)
system.cpu.icache.demandMshrMissLatency::total     68237500                       # number of demand (read+write) MSHR miss ticks (Tick)
system.cpu.icache.overallMshrMissLatency::cpu.inst     68237500                       # number of overall MSHR miss ticks (Tick)
system.cpu.icache.overallMshrMissLatency::total     68237500                       # number of overall MSHR miss ticks (Tick)
system.cpu.icache.demandMshrMissRate::cpu.inst     0.000492                       # mshr miss ratio for demand accesses (Ratio)
system.cpu.icache.demandMshrMissRate::total     0.000492                       # mshr miss ratio for demand accesses (Ratio)
system.cpu.icache.overallMshrMissRate::cpu.inst     0.000492                       # mshr miss ratio for overall accesses (Ratio)
system.cpu.icache.overallMshrMissRate::total     0.000492                       # mshr miss ratio for overall accesses (Ratio)
system.cpu.icache.demandAvgMshrMissLatency::cpu.inst 78433.908046                       # average overall mshr miss latency ((Cycle/Count))
system.cpu.icache.demandAvgMshrMissLatency::total 78433.908046                       # average overall mshr miss latency ((Cycle/Count))
system.cpu.icache.overallAvgMshrMissLatency::cpu.inst 78433.908046                       # average overall mshr miss latency ((Cycle/Count))
system.cpu.icache.overallAvgMshrMissLatency::total 78433.908046                       # average overall mshr miss latency ((Cycle/Count))
system.cpu.icache.replacements                    360                       # number of replacements (Count)
system.cpu.icache.ReadReq.hits::cpu.inst      1767151                       # number of ReadReq hits (Count)
system.cpu.icache.ReadReq.hits::total         1767151                       # number of ReadReq hits (Count)
system.cpu.icache.ReadReq.misses::cpu.inst         1158                       # number of ReadReq misses (Count)
system.cpu.icache.ReadReq.misses::total          1158                       # number of ReadReq misses (Count)
system.cpu.icache.ReadReq.missLatency::cpu.inst     85486500                       # number of ReadReq miss ticks (Tick)
system.cpu.icache.ReadReq.missLatency::total     85486500                       # number of ReadReq miss ticks (Tick)
system.cpu.icache.ReadReq.accesses::cpu.inst      1768309                       # number of ReadReq accesses(hits+misses) (Count)
system.cpu.icache.ReadReq.accesses::total      1768309                       # number of ReadReq accesses(hits+misses) (Count)
system.cpu.icache.ReadReq.missRate::cpu.inst     0.000655                       # miss rate for ReadReq accesses (Ratio)
system.cpu.icache.ReadReq.missRate::total     0.000655                       # miss rate for ReadReq accesses (Ratio)
system.cpu.icache.ReadReq.avgMissLatency::cpu.inst 73822.538860                       # average ReadReq miss latency ((Tick/Count))
system.cpu.icache.ReadReq.avgMissLatency::total 73822.538860                       # average ReadReq miss latency ((Tick/Count))
system.cpu.icache.ReadReq.mshrHits::cpu.inst          288                       # number of ReadReq MSHR hits (Count)
system.cpu.icache.ReadReq.mshrHits::total          288                       # number of ReadReq MSHR hits (Count)
system.cpu.icache.ReadReq.mshrMisses::cpu.inst          870                       # number of ReadReq MSHR misses (Count)
system.cpu.icache.ReadReq.mshrMisses::total          870                       # number of ReadReq MSHR misses (Count)
system.cpu.icache.ReadReq.mshrMissLatency::cpu.inst     68237500                       # number of ReadReq MSHR miss ticks (Tick)
system.cpu.icache.ReadReq.mshrMissLatency::total     68237500                       # number of ReadReq MSHR miss ticks (Tick)
system.cpu.icache.ReadReq.mshrMissRate::cpu.inst     0.000492                       # mshr miss rate for ReadReq accesses (Ratio)
system.cpu.icache.ReadReq.mshrMissRate::total     0.000492                       # mshr miss rate for ReadReq accesses (Ratio)
system.cpu.icache.ReadReq.avgMshrMissLatency::cpu.inst 78433.908046                       # average ReadReq mshr miss latency ((Tick/Count))
system.cpu.icache.ReadReq.avgMshrMissLatency::total 78433.908046                       # average ReadReq mshr miss latency ((Tick/Count))
system.cpu.icache.power_state.pwrStateResidencyTicks::UNDEFINED   3050157500                       # Cumulative time (in ticks) in various power states (Tick)
system.cpu.icache.tags.tagsInUse           470.356554                       # Average ticks per tags in use ((Tick/Count))
system.cpu.icache.tags.totalRefs              1768021                       # Total number of references to valid blocks. (Count)
system.cpu.icache.tags.sampledRefs                870                       # Sample count of references to valid blocks. (Count)
system.cpu.icache.tags.avgRefs            2032.208046                       # Average number of references to valid blocks. ((Count/Count))
system.cpu.icache.tags.warmupTick               87500                       # The tick when the warmup percentage was hit. (Tick)
system.cpu.icache.tags.occupancies::cpu.inst   470.356554                       # Average occupied blocks per tick, per requestor ((Count/Tick))
system.cpu.icache.tags.avgOccs::cpu.inst     0.918665                       # Average percentage of cache occupancy ((Ratio/Tick))
system.cpu.icache.tags.avgOccs::total        0.918665                       # Average percentage of cache occupancy ((Ratio/Tick))
system.cpu.icache.tags.occupanciesTaskId::1024          505                       # Occupied blocks per task id (Count)
system.cpu.icache.tags.ageTaskId_1024::0          104                       # Occupied blocks per task id, per block age (Count)
system.cpu.icache.tags.ageTaskId_1024::1          112                       # Occupied blocks per task id, per block age (Count)
system.cpu.icache.tags.ageTaskId_1024::2            1                       # Occupied blocks per task id, per block age (Count)
system.cpu.icache.tags.ageTaskId_1024::3          288                       # Occupied blocks per task id, per block age (Count)
system.cpu.icache.tags.ratioOccsTaskId::1024     0.986328                       # Ratio of occupied blocks and all blocks, per task id (Ratio)
system.cpu.icache.tags.tagAccesses            7074106                       # Number of tag accesses (Count)
system.cpu.icache.tags.dataAccesses           7074106                       # Number of data accesses (Count)
system.cpu.icache.tags.power_state.pwrStateResidencyTicks::UNDEFINED   3050157500                       # Cumulative time (in ticks) in various power states (Tick)
system.cpu.interrupts.clk_domain.clock           8000                       # Clock period in ticks (Tick)
system.cpu.itb_walker_cache.blockedCycles::no_mshrs            0                       # number of cycles access was blocked (Cycle)
system.cpu.itb_walker_cache.blockedCycles::no_targets            0                       # number of cycles access was blocked (Cycle)
system.cpu.itb_walker_cache.blockedCauses::no_mshrs            0                       # number of times access was blocked (Count)
system.cpu.itb_walker_cache.blockedCauses::no_targets            0                       # number of times access was blocked (Count)
[...]
system.mem_ctrls.dram.perBankWrBursts::14            0                       # Per bank write bursts (Count)
system.mem_ctrls.dram.perBankWrBursts::15            0                       # Per bank write bursts (Count)
system.mem_ctrls.dram.totQLat                23022250                       # Total ticks spent queuing (Tick)
system.mem_ctrls.dram.totBusLat              17610000                       # Total ticks spent in databus transfers (Tick)
system.mem_ctrls.dram.totMemAccLat           89059750                       # Total ticks spent from burst creation until serviced by the DRAM (Tick)
system.mem_ctrls.dram.avgQLat                 6536.70                       # Average queueing delay per DRAM burst ((Tick/Count))
system.mem_ctrls.dram.avgBusLat               5000.00                       # Average bus latency per DRAM burst ((Tick/Count))
system.mem_ctrls.dram.avgMemAccLat           25286.70                       # Average memory access latency per DRAM burst ((Tick/Count))
system.mem_ctrls.dram.readRowHits                3028                       # Number of row buffer hits during reads (Count)
system.mem_ctrls.dram.writeRowHits                  0                       # Number of row buffer hits during writes (Count)
system.mem_ctrls.dram.readRowHitRate            85.97                       # Row buffer hit rate for reads (Ratio)
system.mem_ctrls.dram.writeRowHitRate             nan                       # Row buffer hit rate for writes (Ratio)
system.mem_ctrls.dram.bytesPerActivate::samples          483                       # Bytes accessed per row activation (Byte)
system.mem_ctrls.dram.bytesPerActivate::mean   463.238095                       # Bytes accessed per row activation (Byte)
system.mem_ctrls.dram.bytesPerActivate::gmean   275.665938                       # Bytes accessed per row activation (Byte)
system.mem_ctrls.dram.bytesPerActivate::stdev   397.800362                       # Bytes accessed per row activation (Byte)
system.mem_ctrls.dram.bytesPerActivate::0-127          127     26.29%     26.29% # Bytes accessed per row activation (Byte)
system.mem_ctrls.dram.bytesPerActivate::128-255           92     19.05%     45.34% # Bytes accessed per row activation (Byte)
system.mem_ctrls.dram.bytesPerActivate::256-383           42      8.70%     54.04% # Bytes accessed per row activation (Byte)
system.mem_ctrls.dram.bytesPerActivate::384-511           26      5.38%     59.42% # Bytes accessed per row activation (Byte)
system.mem_ctrls.dram.bytesPerActivate::512-639           19      3.93%     63.35% # Bytes accessed per row activation (Byte)
system.mem_ctrls.dram.bytesPerActivate::640-767           24      4.97%     68.32% # Bytes accessed per row activation (Byte)
system.mem_ctrls.dram.bytesPerActivate::768-895           11      2.28%     70.60% # Bytes accessed per row activation (Byte)
system.mem_ctrls.dram.bytesPerActivate::896-1023           13      2.69%     73.29% # Bytes accessed per row activation (Byte)
system.mem_ctrls.dram.bytesPerActivate::1024-1151          129     26.71%    100.00% # Bytes accessed per row activation (Byte)
system.mem_ctrls.dram.bytesPerActivate::total          483                       # Bytes accessed per row activation (Byte)
system.mem_ctrls.dram.bytesRead                225408                       # Total number of bytes read from DRAM (Byte)
system.mem_ctrls.dram.bytesWritten                  0                       # Total number of bytes written to DRAM (Byte)
system.mem_ctrls.dram.avgRdBW               73.900446                       # Average DRAM read bandwidth in MiBytes/s ((Byte/Second))
system.mem_ctrls.dram.avgWrBW                       0                       # Average DRAM write bandwidth in MiBytes/s ((Byte/Second))
system.mem_ctrls.dram.peakBW                 12800.00                       # Theoretical peak bandwidth in MiByte/s ((Byte/Second))
system.mem_ctrls.dram.busUtil                    0.58                       # Data bus utilization in percentage (Ratio)
system.mem_ctrls.dram.busUtilRead                0.58                       # Data bus utilization in percentage for reads (Ratio)
system.mem_ctrls.dram.busUtilWrite               0.00                       # Data bus utilization in percentage for writes (Ratio)
system.mem_ctrls.dram.pageHitRate               85.97                       # Row buffer hit rate, read and write combined (Ratio)
system.mem_ctrls.dram.power_state.pwrStateResidencyTicks::UNDEFINED   3050157500                       # Cumulative time (in ticks) in various power states (Tick)
system.mem_ctrls.dram.rank0.actEnergy         2134860                       # Energy for activate commands per rank (pJ) (Joule)
system.mem_ctrls.dram.rank0.preEnergy         1111935                       # Energy for precharge commands per rank (pJ) (Joule)
system.mem_ctrls.dram.rank0.readEnergy       15258180                       # Energy for read commands per rank (pJ) (Joule)
system.mem_ctrls.dram.rank0.writeEnergy             0                       # Energy for write commands per rank (pJ) (Joule)
system.mem_ctrls.dram.rank0.refreshEnergy 240324240.000000                       # Energy for refresh commands per rank (pJ) (Joule)
system.mem_ctrls.dram.rank0.actBackEnergy    249036990                       # Energy for active background per rank (pJ) (Joule)
system.mem_ctrls.dram.rank0.preBackEnergy    961545120                       # Energy for precharge background per rank (pJ) (Joule)
system.mem_ctrls.dram.rank0.actPowerDownEnergy            0                       # Energy for active power-down per rank (pJ) (Joule)
system.mem_ctrls.dram.rank0.prePowerDownEnergy            0                       # Energy for precharge power-down per rank (pJ) (Joule)
system.mem_ctrls.dram.rank0.selfRefreshEnergy            0                       # Energy for self refresh per rank (pJ) (Joule)
system.mem_ctrls.dram.rank0.totalEnergy    1469411325                       # Total energy per rank (pJ) (Joule)
system.mem_ctrls.dram.rank0.averagePower   481.749328                       # Core power per rank (mW) (Watt)
system.mem_ctrls.dram.rank0.totalIdleTime            0                       # Total Idle time Per DRAM Rank (Tick)
system.mem_ctrls.dram.rank0.pwrStateTime::IDLE   2497093000                       # Time in different power states (Tick)
system.mem_ctrls.dram.rank0.pwrStateTime::REF    101660000                       # Time in different power states (Tick)
system.mem_ctrls.dram.rank0.pwrStateTime::SREF            0                       # Time in different power states (Tick)
system.mem_ctrls.dram.rank0.pwrStateTime::PRE_PDN            0                       # Time in different power states (Tick)
system.mem_ctrls.dram.rank0.pwrStateTime::ACT    451404500                       # Time in different power states (Tick)
system.mem_ctrls.dram.rank0.pwrStateTime::ACT_PDN            0                       # Time in different power states (Tick)
system.mem_ctrls.dram.rank1.actEnergy         1392300                       # Energy for activate commands per rank (pJ) (Joule)
system.mem_ctrls.dram.rank1.preEnergy          721050                       # Energy for precharge commands per rank (pJ) (Joule)
system.mem_ctrls.dram.rank1.readEnergy        9888900                       # Energy for read commands per rank (pJ) (Joule)
system.mem_ctrls.dram.rank1.writeEnergy             0                       # Energy for write commands per rank (pJ) (Joule)
system.mem_ctrls.dram.rank1.refreshEnergy 240324240.000000                       # Energy for refresh commands per rank (pJ) (Joule)
system.mem_ctrls.dram.rank1.actBackEnergy    125742570                       # Energy for active background per rank (pJ) (Joule)
system.mem_ctrls.dram.rank1.preBackEnergy   1065372000                       # Energy for precharge background per rank (pJ) (Joule)
system.mem_ctrls.dram.rank1.actPowerDownEnergy            0                       # Energy for active power-down per rank (pJ) (Joule)
system.mem_ctrls.dram.rank1.prePowerDownEnergy            0                       # Energy for precharge power-down per rank (pJ) (Joule)
system.mem_ctrls.dram.rank1.selfRefreshEnergy            0                       # Energy for self refresh per rank (pJ) (Joule)
system.mem_ctrls.dram.rank1.totalEnergy    1443441060                       # Total energy per rank (pJ) (Joule)
system.mem_ctrls.dram.rank1.averagePower   473.234926                       # Core power per rank (mW) (Watt)
system.mem_ctrls.dram.rank1.totalIdleTime            0                       # Total Idle time Per DRAM Rank (Tick)
system.mem_ctrls.dram.rank1.pwrStateTime::IDLE   2768115000                       # Time in different power states (Tick)
system.mem_ctrls.dram.rank1.pwrStateTime::REF    101660000                       # Time in different power states (Tick)
system.mem_ctrls.dram.rank1.pwrStateTime::SREF            0                       # Time in different power states (Tick)
system.mem_ctrls.dram.rank1.pwrStateTime::PRE_PDN            0                       # Time in different power states (Tick)
system.mem_ctrls.dram.rank1.pwrStateTime::ACT    180382500                       # Time in different power states (Tick)
system.mem_ctrls.dram.rank1.pwrStateTime::ACT_PDN            0                       # Time in different power states (Tick)
system.mem_ctrls.power_state.pwrStateResidencyTicks::UNDEFINED   3050157500                       # Cumulative time (in ticks) in various power states (Tick)
system.membus.transDist::ReadResp                2966                       # Transaction distribution (Count)
system.membus.transDist::WritebackDirty            20                       # Transaction distribution (Count)
system.membus.transDist::CleanEvict                41                       # Transaction distribution (Count)
system.membus.transDist::ReadExReq                557                       # Transaction distribution (Count)
system.membus.transDist::ReadExResp               557                       # Transaction distribution (Count)
system.membus.transDist::ReadSharedReq           2966                       # Transaction distribution (Count)
system.membus.pktCount_system.l2.mem_side_port::system.mem_ctrls.port         7107                       # Packet count per connected requestor and responder (Count)
system.membus.pktCount_system.l2.mem_side_port::total         7107                       # Packet count per connected requestor and responder (Count)
system.membus.pktCount::total                    7107                       # Packet count per connected requestor and responder (Count)
system.membus.pktSize_system.l2.mem_side_port::system.mem_ctrls.port       226752                       # Cumulative packet size per connected requestor and responder (Byte)
system.membus.pktSize_system.l2.mem_side_port::total       226752                       # Cumulative packet size per connected requestor and responder (Byte)
system.membus.pktSize::total                   226752                       # Cumulative packet size per connected requestor and responder (Byte)
system.membus.snoops                                0                       # Total snoops (Count)
system.membus.snoopTraffic                          0                       # Total snoop traffic (Byte)
system.membus.snoopFanout::samples               3523                       # Request fanout histogram (Count)
system.membus.snoopFanout::mean                     0                       # Request fanout histogram (Count)
system.membus.snoopFanout::stdev                    0                       # Request fanout histogram (Count)
system.membus.snoopFanout::underflows               0      0.00%      0.00% # Request fanout histogram (Count)
system.membus.snoopFanout::0                     3523    100.00%    100.00% # Request fanout histogram (Count)
system.membus.snoopFanout::1                        0      0.00%    100.00% # Request fanout histogram (Count)
system.membus.snoopFanout::overflows                0      0.00%    100.00% # Request fanout histogram (Count)
system.membus.snoopFanout::min_value                0                       # Request fanout histogram (Count)
system.membus.snoopFanout::max_value                0                       # Request fanout histogram (Count)
system.membus.snoopFanout::total                 3523                       # Request fanout histogram (Count)
system.membus.power_state.pwrStateResidencyTicks::UNDEFINED   3050157500                       # Cumulative time (in ticks) in various power states (Tick)
system.membus.reqLayer2.occupancy             4324500                       # Layer occupancy (ticks) (Tick)
system.membus.reqLayer2.utilization               0.0                       # Layer utilization (Ratio)
system.membus.respLayer1.occupancy           18620000                       # Layer occupancy (ticks) (Tick)
system.membus.respLayer1.utilization              0.0                       # Layer utilization (Ratio)
system.membus.snoop_filter.totRequests           3584                       # Total number of requests made to the snoop filter. (Count)
system.membus.snoop_filter.hitSingleRequests           63                       # Number of requests hitting in the snoop filter with a single holder of the requested data. (Count)
system.membus.snoop_filter.hitMultiRequests            0                       # Number of requests hitting in the snoop filter with multiple (>1) holders of the requested data. (Count)
system.membus.snoop_filter.totSnoops                0                       # Total number of snoops made to the snoop filter. (Count)
system.membus.snoop_filter.hitSingleSnoops            0                       # Number of snoops hitting in the snoop filter with a single holder of the requested data. (Count)
system.membus.snoop_filter.hitMultiSnoops            0                       # Number of snoops hitting in the snoop filter with multiple (>1) holders of the requested data. (Count)
system.tol2bus.transDist::ReadResp              19704                       # Transaction distribution (Count)
system.tol2bus.transDist::WritebackDirty         2714                       # Transaction distribution (Count)
system.tol2bus.transDist::WritebackClean          360                       # Transaction distribution (Count)
system.tol2bus.transDist::CleanEvict            16545                       # Transaction distribution (Count)
system.tol2bus.transDist::UpgradeReq                5                       # Transaction distribution (Count)
system.tol2bus.transDist::UpgradeResp               5                       # Transaction distribution (Count)
system.tol2bus.transDist::ReadExReq               782                       # Transaction distribution (Count)
system.tol2bus.transDist::ReadExResp              782                       # Transaction distribution (Count)
system.tol2bus.transDist::ReadCleanReq            870                       # Transaction distribution (Count)
system.tol2bus.transDist::ReadSharedReq         18834                       # Transaction distribution (Count)
system.tol2bus.pktCount_system.cpu.icache.mem_side_port::system.l2.cpu_side_port         2095                       # Packet count per connected requestor and responder (Count)
system.tol2bus.pktCount_system.cpu.dcache.mem_side_port::system.l2.cpu_side_port        58346                       # Packet count per connected requestor and responder (Count)
system.tol2bus.pktCount::total                  60441                       # Packet count per connected requestor and responder (Count)
system.tol2bus.pktSize_system.cpu.icache.mem_side_port::system.l2.cpu_side_port        78400                       # Cumulative packet size per connected requestor and responder (Byte)
system.tol2bus.pktSize_system.cpu.dcache.mem_side_port::system.l2.cpu_side_port      1427840                       # Cumulative packet size per connected requestor and responder (Byte)
system.tol2bus.pktSize::total                 1506240                       # Cumulative packet size per connected requestor and responder (Byte)
system.tol2bus.snoops                             160                       # Total snoops (Count)
system.tol2bus.snoopTraffic                      1600                       # Total snoop traffic (Byte)
system.tol2bus.snoopFanout::samples             20646                       # Request fanout histogram (Count)
system.tol2bus.snoopFanout::mean             0.005376                       # Request fanout histogram (Count)
system.tol2bus.snoopFanout::stdev            0.073128                       # Request fanout histogram (Count)
system.tol2bus.snoopFanout::underflows              0      0.00%      0.00% # Request fanout histogram (Count)
system.tol2bus.snoopFanout::0                   20535     99.46%     99.46% # Request fanout histogram (Count)
system.tol2bus.snoopFanout::1                     111      0.54%    100.00% # Request fanout histogram (Count)
system.tol2bus.snoopFanout::2                       0      0.00%    100.00% # Request fanout histogram (Count)
system.tol2bus.snoopFanout::3                       0      0.00%    100.00% # Request fanout histogram (Count)
system.tol2bus.snoopFanout::4                       0      0.00%    100.00% # Request fanout histogram (Count)
system.tol2bus.snoopFanout::overflows               0      0.00%    100.00% # Request fanout histogram (Count)
system.tol2bus.snoopFanout::min_value               0                       # Request fanout histogram (Count)
system.tol2bus.snoopFanout::max_value               1                       # Request fanout histogram (Count)
system.tol2bus.snoopFanout::total               20646                       # Request fanout histogram (Count)
system.tol2bus.power_state.pwrStateResidencyTicks::UNDEFINED   3050157500                       # Cumulative time (in ticks) in various power states (Tick)
system.tol2bus.reqLayer0.occupancy           23031500                       # Layer occupancy (ticks) (Tick)
system.tol2bus.reqLayer0.utilization              0.0                       # Layer utilization (Ratio)
system.tol2bus.respLayer0.occupancy           1305000                       # Layer occupancy (ticks) (Tick)
system.tol2bus.respLayer0.utilization             0.0                       # Layer utilization (Ratio)
system.tol2bus.respLayer1.occupancy          29426500                       # Layer occupancy (ticks) (Tick)
system.tol2bus.respLayer1.utilization             0.0                       # Layer utilization (Ratio)
system.tol2bus.snoop_filter.totRequests         39955                       # Total number of requests made to the snoop filter. (Count)
system.tol2bus.snoop_filter.hitSingleRequests        19470                       # Number of requests hitting in the snoop filter with a single holder of the requested data. (Count)
system.tol2bus.snoop_filter.hitMultiRequests           11                       # Number of requests hitting in the snoop filter with multiple (>1) holders of the requested data. (Count)
system.tol2bus.snoop_filter.totSnoops              94                       # Total number of snoops made to the snoop filter. (Count)
system.tol2bus.snoop_filter.hitSingleSnoops           94                       # Number of snoops hitting in the snoop filter with a single holder of the requested data. (Count)
system.tol2bus.snoop_filter.hitMultiSnoops            0                       # Number of snoops hitting in the snoop filter with multiple (>1) holders of the requested data. (Count)
system.voltage_domain.voltage                       1                       # Voltage in Volts (Volt)
system.workload.inst.arm                            0                       # number of arm instructions executed (Count)
system.workload.inst.quiesce                        0                       # number of quiesce instructions executed (Count)

---------- End Simulation Statistics   ----------
