
---------- Begin Simulation Statistics ----------
simSeconds                                   0.002043                       # Number of seconds simulated (Second)
simTicks                                   2042535500                       # Number of ticks simulated (Tick)
finalTick                                  2042535500                       # Number of ticks from beginning of simulation (restored from checkpoints and never reset) (Tick)
simFreq                                  1000000000000                       # The number of ticks per simulated second ((Tick/Second))
hostSeconds                                     33.58                       # Real time elapsed on the host (Second)
hostTickRate                                 60823578                       # The number of ticks simulated per host second (ticks/s) ((Tick/Second))
hostMemory                                    2244588                       # Number of bytes of host memory used (Byte)
simInsts                                      5989129                       # Number of instructions simulated (Count)
simOps                                       11493089                       # Number of ops (including micro ops) simulated (Count)
hostInstRate                                   178347                       # Simulator instruction rate (inst/s) ((Count/Second))
hostOpRate                                     342245                       # Simulator op (including micro ops) rate (op/s) ((Count/Second))
system.clk_domain.clock                          1000                       # Clock period in ticks (Tick)
system.cpu.numCycles                          4085072                       # Number of cpu cycles simulated (Cycle)
system.cpu.numWorkItemsStarted                      0                       # Number of work items this cpu started (Count)
system.cpu.numWorkItemsCompleted                    0                       # Number of work items this cpu completed (Count)
system.cpu.instsAdded                        13245723                       # Number of instructions added to the IQ (excludes non-spec) (Count)
system.cpu.nonSpecInstsAdded                    31039                       # Number of non-speculative instructions added to the IQ (Count)
system.cpu.instsIssued                       12600700                       # Number of instructions issued (Count)
system.cpu.squashedInstsIssued                  10063                       # Number of squashed instructions issued (Count)
system.cpu.squashedInstsExamined              1783651                       # Number of squashed instructions iterated over during squash; mainly for profiling (Count)
system.cpu.squashedOperandsExamined           2689013                       # Number of squashed operands that are examined and possibly removed from graph (Count)
system.cpu.squashedNonSpecRemoved               23258                       # Number of squashed non-spec instructions that were removed (Count)
system.cpu.numIssuedDist::samples             3944061                       # Number of insts issued each cycle (Count)
system.cpu.numIssuedDist::mean               3.194854                       # Number of insts issued each cycle (Count)
system.cpu.numIssuedDist::stdev              2.442898                       # Number of insts issued each cycle (Count)
system.cpu.numIssuedDist::underflows                0      0.00%      0.00% # Number of insts issued each cycle (Count)
system.cpu.numIssuedDist::0                    891077     22.59%     22.59% # Number of insts issued each cycle (Count)
system.cpu.numIssuedDist::1                    311192      7.89%     30.48% # Number of insts issued each cycle (Count)
system.cpu.numIssuedDist::2                    427085     10.83%     41.31% # Number of insts issued each cycle (Count)
system.cpu.numIssuedDist::3                    533238     13.52%     54.83% # Number of insts issued each cycle (Count)
system.cpu.numIssuedDist::4                    488023     12.37%     67.21% # Number of insts issued each cycle (Count)
system.cpu.numIssuedDist::5                    375417      9.52%     76.72% # Number of insts issued each cycle (Count)
system.cpu.numIssuedDist::6                    547512     13.88%     90.61% # Number of insts issued each cycle (Count)
system.cpu.numIssuedDist::7                    242761      6.16%     96.76% # Number of insts issued each cycle (Count)
system.cpu.numIssuedDist::8                    127756      3.24%    100.00% # Number of insts issued each cycle (Count)
system.cpu.numIssuedDist::overflows                 0      0.00%    100.00% # Number of insts issued each cycle (Count)
system.cpu.numIssuedDist::min_value                 0                       # Number of insts issued each cycle (Count)
system.cpu.numIssuedDist::max_value                 8                       # Number of insts issued each cycle (Count)
system.cpu.numIssuedDist::total               3944061                       # Number of insts issued each cycle (Count)
system.cpu.statFuBusy::No_OpClass                   0      0.00%      0.00% # attempts to use FU when none available (Count)
system.cpu.statFuBusy::IntAlu                  152133     80.65%     80.65% # attempts to use FU when none available (Count)
system.cpu.statFuBusy::IntMult                      0      0.00%     80.65% # attempts to use FU when none available (Count)
system.cpu.statFuBusy::IntDiv                       0      0.00%     80.65% # attempts to use FU when none available (Count)
system.cpu.statFuBusy::FloatAdd                     0      0.00%     80.65% # attempts to use FU when none available (Count)
system.cpu.statFuBusy::FloatCmp                     0      0.00%     80.65% # attempts to use FU when none available (Count)
system.cpu.statFuBusy::FloatCvt                     0      0.00%     80.65% # attempts to use FU when none available (Count)
system.cpu.statFuBusy::FloatMult                    0      0.00%     80.65% # attempts to use FU when none available (Count)
system.cpu.statFuBusy::FloatMultAcc                 0      0.00%     80.65% # attempts to use FU when none available (Count)
system.cpu.statFuBusy::FloatDiv                     0      0.00%     80.65% # attempts to use FU when none available (Count)
system.cpu.statFuBusy::FloatMisc                    0      0.00%     80.65% # attempts to use FU when none available (Count)
system.cpu.statFuBusy::FloatSqrt                    0      0.00%     80.65% # attempts to use FU when none available (Count)
system.cpu.statFuBusy::SimdAdd                      0      0.00%     80.65% # attempts to use FU when none available (Count)
system.cpu.statFuBusy::SimdAddAcc                   0      0.00%     80.65% # attempts to use FU when none available (Count)
system.cpu.statFuBusy::SimdAlu                      0      0.00%     80.65% # attempts to use FU when none available (Count)
system.cpu.statFuBusy::SimdCmp                      0      0.00%     80.65% # attempts to use FU when none available (Count)
system.cpu.statFuBusy::SimdCvt                      0      0.00%     80.65% # attempts to use FU when none available (Count)
system.cpu.statFuBusy::SimdMisc                     0      0.00%     80.65% # attempts to use FU when none available (Count)
system.cpu.statFuBusy::SimdMult                     0      0.00%     80.65% # attempts to use FU when none available (Count)
system.cpu.statFuBusy::SimdMultAcc                  0      0.00%     80.65% # attempts to use FU when none available (Count)
system.cpu.statFuBusy::SimdShift                    0      0.00%     80.65% # attempts to use FU when none available (Count)
system.cpu.statFuBusy::SimdShiftAcc                 0      0.00%     80.65% # attempts to use FU when none available (Count)
system.cpu.statFuBusy::SimdDiv                      0      0.00%     80.65% # attempts to use FU when none available (Count)
system.cpu.statFuBusy::SimdSqrt                     0      0.00%     80.65% # attempts to use FU when none available (Count)
system.cpu.statFuBusy::SimdFloatAdd                 0      0.00%     80.65% # attempts to use FU when none available (Count)
system.cpu.statFuBusy::SimdFloatAlu                 0      0.00%     80.65% # attempts to use FU when none available (Count)
system.cpu.statFuBusy::SimdFloatCmp                 0      0.00%     80.65% # attempts to use FU when none available (Count)
system.cpu.statFuBusy::SimdFloatCvt                 0      0.00%     80.65% # attempts to use FU when none available (Count)
system.cpu.statFuBusy::SimdFloatDiv                 0      0.00%     80.65% # attempts to use FU when none available (Count)
system.cpu.statFuBusy::SimdFloatMisc                0      0.00%     80.65% # attempts to use FU when none available (Count)
system.cpu.statFuBusy::SimdFloatMult                0      0.00%     80.65% # attempts to use FU when none available (Count)
system.cpu.statFuBusy::SimdFloatMultAcc             0      0.00%     80.65% # attempts to use FU when none available (Count)
system.cpu.statFuBusy::SimdFloatSqrt                0      0.00%     80.65% # attempts to use FU when none available (Count)
system.cpu.statFuBusy::SimdReduceAdd                0      0.00%     80.65% # attempts to use FU when none available (Count)
system.cpu.statFuBusy::SimdReduceAlu                0      0.00%     80.65% # attempts to use FU when none available (Count)
system.cpu.statFuBusy::SimdReduceCmp                0      0.00%     80.65% # attempts to use FU when none available (Count)
system.cpu.statFuBusy::SimdFloatReduceAdd            0      0.00%     80.65% # attempts to use FU when none available (Count)
system.cpu.statFuBusy::SimdFloatReduceCmp            0      0.00%     80.65% # attempts to use FU when none available (Count)
system.cpu.statFuBusy::SimdAes                      0      0.00%     80.65% # attempts to use FU when none available (Count)
system.cpu.statFuBusy::SimdAesMix                   0      0.00%     80.65% # attempts to use FU when none available (Count)
system.cpu.statFuBusy::SimdSha1Hash                 0      0.00%     80.65% # attempts to use FU when none available (Count)
system.cpu.statFuBusy::SimdSha1Hash2                0      0.00%     80.65% # attempts to use FU when none available (Count)
system.cpu.statFuBusy::SimdSha256Hash               0      0.00%     80.65% # attempts to use FU when none available (Count)
system.cpu.statFuBusy::SimdSha256Hash2              0      0.00%     80.65% # attempts to use FU when none available (Count)
system.cpu.statFuBusy::SimdShaSigma2                0      0.00%     80.65% # attempts to use FU when none available (Count)
system.cpu.statFuBusy::SimdShaSigma3                0      0.00%     80.65% # attempts to use FU when none available (Count)
system.cpu.statFuBusy::SimdPredAlu                  0      0.00%     80.65% # attempts to use FU when none available (Count)
system.cpu.statFuBusy::MemRead                  29206     15.48%     96.14% # attempts to use FU when none available (Count)
system.cpu.statFuBusy::MemWrite                  7283      3.86%    100.00% # attempts to use FU when none available (Count)
system.cpu.statFuBusy::FloatMemRead                 0      0.00%    100.00% # attempts to use FU when none available (Count)
system.cpu.statFuBusy::FloatMemWrite                0      0.00%    100.00% # attempts to use FU when none available (Count)
system.cpu.statFuBusy::IprAccess                    0      0.00%    100.00% # attempts to use FU when none available (Count)
system.cpu.statFuBusy::InstPrefetch                 0      0.00%    100.00% # attempts to use FU when none available (Count)
system.cpu.statIssuedInstType_0::No_OpClass         6647      0.05%      0.05% # Number of instructions issued per FU type, per thread (Count)
system.cpu.statIssuedInstType_0::IntAlu       9699449     76.98%     77.03% # Number of instructions issued per FU type, per thread (Count)
system.cpu.statIssuedInstType_0::IntMult          228      0.00%     77.03% # Number of instructions issued per FU type, per thread (Count)
system.cpu.statIssuedInstType_0::IntDiv          1204      0.01%     77.04% # Number of instructions issued per FU type, per thread (Count)
system.cpu.statIssuedInstType_0::FloatAdd           76      0.00%     77.04% # Number of instructions issued per FU type, per thread (Count)
system.cpu.statIssuedInstType_0::FloatCmp          100      0.00%     77.04% # Number of instructions issued per FU type, per thread (Count)
system.cpu.statIssuedInstType_0::FloatCvt            0      0.00%     77.04% # Number of instructions issued per FU type, per thread (Count)
system.cpu.statIssuedInstType_0::FloatMult            0      0.00%     77.04% # Number of instructions issued per FU type, per thread (Count)
system.cpu.statIssuedInstType_0::FloatMultAcc            0      0.00%     77.04% # Number of instructions issued per FU type, per thread (Count)
system.cpu.statIssuedInstType_0::FloatDiv            0      0.00%     77.04% # Number of instructions issued per FU type, per thread (Count)
system.cpu.statIssuedInstType_0::FloatMisc            0      0.00%     77.04% # Number of instructions issued per FU type, per thread (Count)
system.cpu.statIssuedInstType_0::FloatSqrt            0      0.00%     77.04% # Number of instructions issued per FU type, per thread (Count)
system.cpu.statIssuedInstType_0::SimdAdd            0      0.00%     77.04% # Number of instructions issued per FU type, per thread (Count)
system.cpu.statIssuedInstType_0::SimdAddAcc            0      0.00%     77.04% # Number of instructions issued per FU type, per thread (Count)
system.cpu.statIssuedInstType_0::SimdAlu            0      0.00%     77.04% # Number of instructions issued per FU type, per thread (Count)
system.cpu.statIssuedInstType_0::SimdCmp            0      0.00%     77.04% # Number of instructions issued per FU type, per thread (Count)
system.cpu.statIssuedInstType_0::SimdCvt            0      0.00%     77.04% # Number of instructions issued per FU type, per thread (Count)
system.cpu.statIssuedInstType_0::SimdMisc            0      0.00%     77.04% # Number of instructions issued per FU type, per thread (Count)
system.cpu.statIssuedInstType_0::SimdMult            0      0.00%     77.04% # Number of instructions issued per FU type, per thread (Count)
system.cpu.statIssuedInstType_0::SimdMultAcc            0      0.00%     77.04% # Number of instructions issued per FU type, per thread (Count)
system.cpu.statIssuedInstType_0::SimdShift            0      0.00%     77.04% # Number of instructions issued per FU type, per thread (Count)
system.cpu.statIssuedInstType_0::SimdShiftAcc            0      0.00%     77.04% # Number of instructions issued per FU type, per thread (Count)
system.cpu.statIssuedInstType_0::SimdDiv            0      0.00%     77.04% # Number of instructions issued per FU type, per thread (Count)
system.cpu.statIssuedInstType_0::SimdSqrt            0      0.00%     77.04% # Number of instructions issued per FU type, per thread (Count)
system.cpu.statIssuedInstType_0::SimdFloatAdd            0      0.00%     77.04% # Number of instructions issued per FU type, per thread (Count)
system.cpu.statIssuedInstType_0::SimdFloatAlu            0      0.00%     77.04% # Number of instructions issued per FU type, per thread (Count)
system.cpu.statIssuedInstType_0::SimdFloatCmp            0      0.00%     77.04% # Number of instructions issued per FU type, per thread (Count)
system.cpu.statIssuedInstType_0::SimdFloatCvt            0      0.00%     77.04% # Number of instructions issued per FU type, per thread (Count)
system.cpu.statIssuedInstType_0::SimdFloatDiv            0      0.00%     77.04% # Number of instructions issued per FU type, per thread (Count)
system.cpu.statIssuedInstType_0::SimdFloatMisc            0      0.00%     77.04% # Number of instructions issued per FU type, per thread (Count)
system.cpu.statIssuedInstType_0::SimdFloatMult            0      0.00%     77.04% # Number of instructions issued per FU type, per thread (Count)
system.cpu.statIssuedInstType_0::SimdFloatMultAcc            0      0.00%     77.04% # Number of instructions issued per FU type, per thread (Count)
system.cpu.statIssuedInstType_0::SimdFloatSqrt            0      0.00%     77.04% # Number of instructions issued per FU type, per thread (Count)
system.cpu.statIssuedInstType_0::SimdReduceAdd            0      0.00%     77.04% # Number of instructions issued per FU type, per thread (Count)
system.cpu.statIssuedInstType_0::SimdReduceAlu            0      0.00%     77.04% # Number of instructions issued per FU type, per thread (Count)
system.cpu.statIssuedInstType_0::SimdReduceCmp            0      0.00%     77.04% # Number of instructions issued per FU type, per thread (Count)
system.cpu.statIssuedInstType_0::SimdFloatReduceAdd            0      0.00%     77.04% # Number of instructions issued per FU type, per thread (Count)
system.cpu.statIssuedInstType_0::SimdFloatReduceCmp            0      0.00%     77.04% # Number of instructions issued per FU type, per thread (Count)
system.cpu.statIssuedInstType_0::SimdAes            0      0.00%     77.04% # Number of instructions issued per FU type, per thread (Count)
system.cpu.statIssuedInstType_0::SimdAesMix            0      0.00%     77.04% # Number of instructions issued per FU type, per thread (Count)
system.cpu.statIssuedInstType_0::SimdSha1Hash            0      0.00%     77.04% # Number of instructions issued per FU type, per thread (Count)
system.cpu.statIssuedInstType_0::SimdSha1Hash2            0      0.00%     77.04% # Number of instructions issued per FU type, per thread (Count)
system.cpu.statIssuedInstType_0::SimdSha256Hash            0      0.00%     77.04% # Number of instructions issued per FU type, per thread (Count)
system.cpu.statIssuedInstType_0::SimdSha256Hash2            0      0.00%     77.04% # Number of instructions issued per FU type, per thread (Count)
system.cpu.statIssuedInstType_0::SimdShaSigma2            0      0.00%     77.04% # Number of instructions issued per FU type, per thread (Count)
system.cpu.statIssuedInstType_0::SimdShaSigma3            0      0.00%     77.04% # Number of instructions issued per FU type, per thread (Count)
system.cpu.statIssuedInstType_0::SimdPredAlu            0      0.00%     77.04% # Number of instructions issued per FU type, per thread (Count)
system.cpu.statIssuedInstType_0::MemRead      1838694     14.59%     91.63% # Number of instructions issued per FU type, per thread (Count)
system.cpu.statIssuedInstType_0::MemWrite      1053587      8.36%     99.99% # Number of instructions issued per FU type, per thread (Count)
system.cpu.statIssuedInstType_0::FloatMemRead          465      0.00%    100.00% # Number of instructions issued per FU type, per thread (Count)
system.cpu.statIssuedInstType_0::FloatMemWrite          250      0.00%    100.00% # Number of instructions issued per FU type, per thread (Count)
system.cpu.statIssuedInstType_0::IprAccess            0      0.00%    100.00% # Number of instructions issued per FU type, per thread (Count)
system.cpu.statIssuedInstType_0::InstPrefetch            0      0.00%    100.00% # Number of instructions issued per FU type, per thread (Count)
system.cpu.statIssuedInstType_0::total       12600700                       # Number of instructions issued per FU type, per thread (Count)
system.cpu.issueRate                         3.084572                       # Inst issue rate ((Count/Cycle))
system.cpu.fuBusy                              188622                       # FU busy when requested (Count)
system.cpu.fuBusyRate                        0.014969                       # FU busy rate (busy events/executed inst) ((Count/Count))
system.cpu.intInstQueueReads                 29340858                       # Number of integer instruction queue reads (Count)
system.cpu.intInstQueueWrites                15064719                       # Number of integer instruction queue writes (Count)
system.cpu.intInstQueueWakeupAccesses        12473807                       # Number of integer instruction queue wakeup accesses (Count)
system.cpu.fpInstQueueReads                      3288                       # Number of floating instruction queue reads (Count)
system.cpu.fpInstQueueWrites                     1893                       # Number of floating instruction queue writes (Count)
system.cpu.fpInstQueueWakeupAccesses             1548                       # Number of floating instruction queue wakeup accesses (Count)
system.cpu.vecInstQueueReads                        0                       # Number of vector instruction queue reads (Count)
system.cpu.vecInstQueueWrites                       0                       # Number of vector instruction queue writes (Count)
system.cpu.vecInstQueueWakeupAccesses               0                       # Number of vector instruction queue wakeup accesses (Count)
system.cpu.intAluAccesses                    12781031                       # Number of integer alu accesses (Count)
system.cpu.fpAluAccesses                         1644                       # Number of floating point alu accesses (Count)
system.cpu.vecAluAccesses                           0                       # Number of vector alu accesses (Count)
system.cpu.idleCycles                               0                       # Number of cycles IEW is idle (Cycle)
system.cpu.squashCycles                         40614                       # Number of cycles IEW is squashing (Cycle)
system.cpu.blockCycles                         257617                       # Number of cycles IEW is blocking (Cycle)
system.cpu.unblockCycles                        16351                       # Number of cycles IEW is unblocking (Cycle)
system.cpu.dispatchedInsts                   13276762                       # Number of instructions dispatched to IQ (Count)
system.cpu.dispSquashedInsts                     1889                       # Number of squashed instructions skipped by dispatch (Count)
system.cpu.dispLoadInsts                      1961029                       # Number of dispatched load instructions (Count)
system.cpu.dispStoreInsts                     1142841                       # Number of dispatched store instructions (Count)
system.cpu.dispNonSpecInsts                     11239                       # Number of dispatched non-speculative instructions (Count)
system.cpu.iqFullEvents                          4637                       # Number of times the IQ has become full, causing a stall (Count)
system.cpu.lsqFullEvents                         9734                       # Number of times the LSQ has become full, causing a stall (Count)
system.cpu.memOrderViolationEvents               6261                       # Number of memory order violations (Count)
system.cpu.predictedTakenIncorrect              17327                       # Number of branches that were predicted taken incorrectly (Count)
system.cpu.predictedNotTakenIncorrect           24404                       # Number of branches that were predicted not taken incorrectly (Count)
system.cpu.branchMispredicts                    41731                       # Number of branch mispredicts detected at execute (Count)
system.cpu.numInsts                          12516933                       # Number of executed instructions (Count)
system.cpu.numLoadInsts                       1820133                       # Number of load instructions executed (Count)
system.cpu.numSquashedInsts                     83767                       # Number of squashed instructions skipped in execute (Count)
system.cpu.numSwp                                   0                       # Number of swp insts executed (Count)
system.cpu.numNop                                   0                       # Number of nop insts executed (Count)
system.cpu.numRefs                            2862388                       # Number of memory reference insts executed (Count)
system.cpu.numBranches                        1395078                       # Number of branches executed (Count)
system.cpu.numStoreInsts                      1042255                       # Number of stores executed (Count)
system.cpu.numRate                           3.064067                       # Inst execution rate ((Count/Cycle))
system.cpu.instsToCommit                     12495922                       # Cumulative count of insts sent to commit (Count)
system.cpu.writebackCount                    12475355                       # Cumulative count of insts written-back (Count)
system.cpu.producerInst                       9485634                       # Number of instructions producing a value (Count)
system.cpu.consumerInst                      15914658                       # Number of instructions consuming a value (Count)
system.cpu.wbRate                            3.053889                       # Insts written-back per cycle ((Count/Cycle))
system.cpu.wbFanout                          0.596031                       # Average fanout of values written-back ((Count/Count))
system.cpu.timesIdled                            2434                       # Number of times that the entire CPU went into an idle state and unscheduled itself (Count)
system.cpu.idleCycles                          141011                       # Total number of cycles that the CPU has spent unscheduled due to idling (Cycle)
system.cpu.committedInsts                     5989129                       # Number of Instructions Simulated (Count)
system.cpu.committedOps                      11493089                       # Number of Ops (including micro ops) Simulated (Count)
system.cpu.cpi                               0.682081                       # CPI: Cycles Per Instruction ((Cycle/Count))
system.cpu.totalCpi                          0.682081                       # CPI: Total CPI of All Threads ((Cycle/Count))
system.cpu.ipc                               1.466101                       # IPC: Instructions Per Cycle ((Count/Cycle))
system.cpu.totalIpc                          1.466101                       # IPC: Total IPC of All Threads ((Count/Cycle))
system.cpu.intRegfileReads                   18312528                       # Number of integer regfile reads (Count)
system.cpu.intRegfileWrites                  10017099                       # Number of integer regfile writes (Count)
system.cpu.fpRegfileReads                        1976                       # Number of floating regfile reads (Count)
system.cpu.fpRegfileWrites                       1198                       # Number of floating regfile writes (Count)
system.cpu.ccRegfileReads                     6669372                       # number of cc regfile reads (Count)
system.cpu.ccRegfileWrites                    4166550                       # number of cc regfile writes (Count)
system.cpu.miscRegfileReads                   5571220                       # number of misc regfile reads (Count)
system.cpu.miscRegfileWrites                     1096                       # number of misc regfile writes (Count)
system.cpu.MemDepUnit__0.insertedLoads        1961029                       # Number of loads inserted to the mem dependence unit. (Count)
system.cpu.MemDepUnit__0.insertedStores       1142841                       # Number of stores inserted to the mem dependence unit. (Count)
system.cpu.MemDepUnit__0.conflictingLoads       444894                       # Number of conflicting loads. (Count)
system.cpu.MemDepUnit__0.conflictingStores       284762                       # Number of conflicting stores. (Count)
system.cpu.MemDepUnit__1.insertedLoads              0                       # Number of loads inserted to the mem dependence unit. (Count)
system.cpu.MemDepUnit__1.insertedStores             0                       # Number of stores inserted to the mem dependence unit. (Count)
system.cpu.MemDepUnit__1.conflictingLoads            0                       # Number of conflicting loads. (Count)
system.cpu.MemDepUnit__1.conflictingStores            0                       # Number of conflicting stores. (Count)
system.cpu.MemDepUnit__2.insertedLoads              0                       # Number of loads inserted to the mem dependence unit. (Count)
system.cpu.MemDepUnit__2.insertedStores             0                       # Number of stores inserted to the mem dependence unit. (Count)
system.cpu.MemDepUnit__2.conflictingLoads            0                       # Number of conflicting loads. (Count)
system.cpu.MemDepUnit__2.conflictingStores            0                       # Number of conflicting stores. (Count)
system.cpu.MemDepUnit__3.insertedLoads              0                       # Number of loads inserted to the mem dependence unit. (Count)
system.cpu.MemDepUnit__3.insertedStores             0                       # Number of stores inserted to the mem dependence unit. (Count)
system.cpu.MemDepUnit__3.conflictingLoads            0                       # Number of conflicting loads. (Count)
system.cpu.MemDepUnit__3.conflictingStores            0                       # Number of conflicting stores. (Count)
system.cpu.branchPred.lookups                 1626245                       # Number of BP lookups (Count)
system.cpu.branchPred.condPredicted           1267201                       # Number of conditional branches predicted (Count)
system.cpu.branchPred.condIncorrect             42337                       # Number of conditional branches incorrect (Count)
system.cpu.branchPred.BTBLookups               735494                       # Number of BTB lookups (Count)
system.cpu.branchPred.BTBHits                  721500                       # Number of BTB hits (Count)
system.cpu.branchPred.BTBHitRatio            0.980973                       # BTB Hit Ratio (Ratio)
system.cpu.branchPred.RASUsed                  114954                       # Number of times the RAS was used to get a target. (Count)
system.cpu.branchPred.RASIncorrect                 77                       # Number of incorrect RAS predictions. (Count)
system.cpu.branchPred.indirectLookups           20532                       # Number of indirect predictor lookups. (Count)
system.cpu.branchPred.indirectHits              18191                       # Number of indirect target hits. (Count)
system.cpu.branchPred.indirectMisses             2341                       # Number of indirect misses. (Count)
system.cpu.branchPred.indirectMispredicted         3322                       # Number of mispredicted indirect branches. (Count)
system.cpu.branchPred.perceptron.lookups            0                       # Number of BP lookups (Count)
system.cpu.branchPred.perceptron.condPredicted            0                       # Number of conditional branches predicted (Count)
system.cpu.branchPred.perceptron.condIncorrect            0                       # Number of conditional branches incorrect (Count)
system.cpu.branchPred.perceptron.BTBLookups            0                       # Number of BTB lookups (Count)
system.cpu.branchPred.perceptron.BTBHits            0                       # Number of BTB hits (Count)
system.cpu.branchPred.perceptron.BTBHitRatio          nan                       # BTB Hit Ratio (Ratio)
system.cpu.branchPred.perceptron.RASUsed            0                       # Number of times the RAS was used to get a target. (Count)
system.cpu.branchPred.perceptron.RASIncorrect            0                       # Number of incorrect RAS predictions. (Count)
system.cpu.branchPred.perceptron.indirectLookups            0                       # Number of indirect predictor lookups. (Count)
system.cpu.branchPred.perceptron.indirectHits            0                       # Number of indirect target hits. (Count)
system.cpu.branchPred.perceptron.indirectMisses            0                       # Number of indirect misses. (Count)
system.cpu.branchPred.perceptron.indirectMispredicted            0                       # Number of mispredicted indirect branches. (Count)
system.cpu.branchPred.tage.lookups                  0                       # Number of BP lookups (Count)
system.cpu.branchPred.tage.condPredicted            0                       # Number of conditional branches predicted (Count)
system.cpu.branchPred.tage.condIncorrect            0                       # Number of conditional branches incorrect (Count)
system.cpu.branchPred.tage.BTBLookups               0                       # Number of BTB lookups (Count)
system.cpu.branchPred.tage.BTBHits                  0                       # Number of BTB hits (Count)
system.cpu.branchPred.tage.BTBHitRatio            nan                       # BTB Hit Ratio (Ratio)
system.cpu.branchPred.tage.RASUsed                  0                       # Number of times the RAS was used to get a target. (Count)
system.cpu.branchPred.tage.RASIncorrect             0                       # Number of incorrect RAS predictions. (Count)
system.cpu.branchPred.tage.indirectLookups            0                       # Number of indirect predictor lookups. (Count)
system.cpu.branchPred.tage.indirectHits             0                       # Number of indirect target hits. (Count)
system.cpu.branchPred.tage.indirectMisses            0                       # Number of indirect misses. (Count)
system.cpu.branchPred.tage.indirectMispredicted            0                       # Number of mispredicted indirect branches. (Count)
system.cpu.branchPred.tage.tage.longestMatchProviderCorrect       620447                       # Number of times TAGE Longest Match is the provider and the prediction is correct (Count)
system.cpu.branchPred.tage.tage.altMatchProviderCorrect         3786                       # Number of times TAGE Alt Match is the provider and the prediction is correct (Count)
system.cpu.branchPred.tage.tage.bimodalAltMatchProviderCorrect         1200                       # Number of times TAGE Alt Match is the bimodal and it is the provider and the prediction is correct (Count)
system.cpu.branchPred.tage.tage.bimodalProviderCorrect       378719                       # Number of times there are no hits on the TAGE tables and the bimodal prediction is correct (Count)
system.cpu.branchPred.tage.tage.longestMatchProviderWrong        17871                       # Number of times TAGE Longest Match is the provider and the prediction is wrong (Count)
system.cpu.branchPred.tage.tage.altMatchProviderWrong         2273                       # Number of times TAGE Alt Match is the provider and the prediction is wrong (Count)
system.cpu.branchPred.tage.tage.bimodalAltMatchProviderWrong          692                       # Number of times TAGE Alt Match is the bimodal and it is the provider and the prediction is wrong (Count)
system.cpu.branchPred.tage.tage.bimodalProviderWrong         4691                       # Number of times there are no hits on the TAGE tables and the bimodal prediction is wrong (Count)
system.cpu.branchPred.tage.tage.altMatchProviderWouldHaveHit         7837                       # Number of times TAGE Longest Match is the provider, the prediction is wrong and Alt Match prediction was correct (Count)
system.cpu.branchPred.tage.tage.longestMatchProviderWouldHaveHit         2077                       # Number of times TAGE Alt Match is the provider, the prediction is wrong and Longest Match prediction was correct (Count)
system.cpu.branchPred.tage.tage.longestMatchProvider::0            0                       # TAGE provider for longest match (Count)
system.cpu.branchPred.tage.tage.longestMatchProvider::1       132527                       # TAGE provider for longest match (Count)
system.cpu.branchPred.tage.tage.longestMatchProvider::2        98468                       # TAGE provider for longest match (Count)
system.cpu.branchPred.tage.tage.longestMatchProvider::3        80551                       # TAGE provider for longest match (Count)
system.cpu.branchPred.tage.tage.longestMatchProvider::4       104315                       # TAGE provider for longest match (Count)
system.cpu.branchPred.tage.tage.longestMatchProvider::5        56807                       # TAGE provider for longest match (Count)
system.cpu.branchPred.tage.tage.longestMatchProvider::6       101624                       # TAGE provider for longest match (Count)
system.cpu.branchPred.tage.tage.longestMatchProvider::7        22537                       # TAGE provider for longest match (Count)
system.cpu.branchPred.tage.tage.longestMatchProvider::8        19946                       # TAGE provider for longest match (Count)
system.cpu.branchPred.tage.tage.longestMatchProvider::9        13041                       # TAGE provider for longest match (Count)
system.cpu.branchPred.tage.tage.longestMatchProvider::10         8431                       # TAGE provider for longest match (Count)
system.cpu.branchPred.tage.tage.longestMatchProvider::11         4947                       # TAGE provider for longest match (Count)
system.cpu.branchPred.tage.tage.longestMatchProvider::12         1183                       # TAGE provider for longest match (Count)
system.cpu.branchPred.tage.tage.altMatchProvider::0       261104                       # TAGE provider for alt match (Count)
system.cpu.branchPred.tage.tage.altMatchProvider::1        69364                       # TAGE provider for alt match (Count)
system.cpu.branchPred.tage.tage.altMatchProvider::2        61201                       # TAGE provider for alt match (Count)
system.cpu.branchPred.tage.tage.altMatchProvider::3        74728                       # TAGE provider for alt match (Count)
system.cpu.branchPred.tage.tage.altMatchProvider::4        67333                       # TAGE provider for alt match (Count)
system.cpu.branchPred.tage.tage.altMatchProvider::5        61233                       # TAGE provider for alt match (Count)
system.cpu.branchPred.tage.tage.altMatchProvider::6        23337                       # TAGE provider for alt match (Count)
system.cpu.branchPred.tage.tage.altMatchProvider::7         7240                       # TAGE provider for alt match (Count)
system.cpu.branchPred.tage.tage.altMatchProvider::8         9454                       # TAGE provider for alt match (Count)
system.cpu.branchPred.tage.tage.altMatchProvider::9         4634                       # TAGE provider for alt match (Count)
system.cpu.branchPred.tage.tage.altMatchProvider::10         3783                       # TAGE provider for alt match (Count)
system.cpu.branchPred.tage.tage.altMatchProvider::11          966                       # TAGE provider for alt match (Count)
system.cpu.branchPred.tage.tage.altMatchProvider::12            0                       # TAGE provider for alt match (Count)
system.cpu.commit.commitSquashedInsts         1782484                       # The number of squashed insts skipped by commit (Count)
system.cpu.commit.commitNonSpecStalls            7781                       # The number of times commit has been forced to stall to communicate backwards (Count)
system.cpu.commit.branchMispredicts             34787                       # The number of times a branch was mispredicted (Count)
system.cpu.commit.numCommittedDist::samples      3694875                       # Number of insts commited each cycle (Count)
system.cpu.commit.numCommittedDist::mean     3.110549                       # Number of insts commited each cycle (Count)
system.cpu.commit.numCommittedDist::stdev     2.989819                       # Number of insts commited each cycle (Count)
system.cpu.commit.numCommittedDist::underflows            0      0.00%      0.00% # Number of insts commited each cycle (Count)
system.cpu.commit.numCommittedDist::0         1051795     28.47%     28.47% # Number of insts commited each cycle (Count)
system.cpu.commit.numCommittedDist::1          515948     13.96%     42.43% # Number of insts commited each cycle (Count)
system.cpu.commit.numCommittedDist::2          288093      7.80%     50.23% # Number of insts commited each cycle (Count)
system.cpu.commit.numCommittedDist::3          524368     14.19%     64.42% # Number of insts commited each cycle (Count)
system.cpu.commit.numCommittedDist::4          201929      5.47%     69.88% # Number of insts commited each cycle (Count)
system.cpu.commit.numCommittedDist::5          134960      3.65%     73.54% # Number of insts commited each cycle (Count)
system.cpu.commit.numCommittedDist::6          180820      4.89%     78.43% # Number of insts commited each cycle (Count)
system.cpu.commit.numCommittedDist::7          115281      3.12%     81.55% # Number of insts commited each cycle (Count)
system.cpu.commit.numCommittedDist::8          681681     18.45%    100.00% # Number of insts commited each cycle (Count)
system.cpu.commit.numCommittedDist::overflows            0      0.00%    100.00% # Number of insts commited each cycle (Count)
system.cpu.commit.numCommittedDist::min_value            0                       # Number of insts commited each cycle (Count)
system.cpu.commit.numCommittedDist::max_value            8                       # Number of insts commited each cycle (Count)
system.cpu.commit.numCommittedDist::total      3694875                       # Number of insts commited each cycle (Count)
system.cpu.commit.instsCommitted              5989129                       # Number of instructions committed (Count)
system.cpu.commit.opsCommitted               11493089                       # Number of ops (including micro ops) committed (Count)
system.cpu.commit.memRefs                     2663210                       # Number of memory references committed (Count)
system.cpu.commit.loads                       1673889                       # Number of loads committed (Count)
system.cpu.commit.amos                              0                       # Number of atomic instructions committed (Count)
system.cpu.commit.membars                        4820                       # Number of memory barriers committed (Count)
system.cpu.commit.branches                    1314589                       # Number of branches committed (Count)
system.cpu.commit.vectorInstructions                0                       # Number of committed Vector instructions. (Count)
system.cpu.commit.floating                       1505                       # Number of committed floating point instructions. (Count)
system.cpu.commit.integer                    11432050                       # Number of committed integer instructions. (Count)
system.cpu.commit.functionCalls                 94785                       # Number of function calls committed. (Count)
system.cpu.commit.committedInstType_0::No_OpClass         3335      0.03%      0.03% # Class of committed instruction (Count)
system.cpu.commit.committedInstType_0::IntAlu      8825062     76.79%     76.81% # Class of committed instruction (Count)
system.cpu.commit.committedInstType_0::IntMult          213      0.00%     76.82% # Class of committed instruction (Count)
system.cpu.commit.committedInstType_0::IntDiv         1119      0.01%     76.83% # Class of committed instruction (Count)
system.cpu.commit.committedInstType_0::FloatAdd           50      0.00%     76.83% # Class of committed instruction (Count)
system.cpu.commit.committedInstType_0::FloatCmp          100      0.00%     76.83% # Class of committed instruction (Count)
system.cpu.commit.committedInstType_0::FloatCvt            0      0.00%     76.83% # Class of committed instruction (Count)
system.cpu.commit.committedInstType_0::FloatMult            0      0.00%     76.83% # Class of committed instruction (Count)
system.cpu.commit.committedInstType_0::FloatMultAcc            0      0.00%     76.83% # Class of committed instruction (Count)
system.cpu.commit.committedInstType_0::FloatDiv            0      0.00%     76.83% # Class of committed instruction (Count)
system.cpu.commit.committedInstType_0::FloatMisc            0      0.00%     76.83% # Class of committed instruction (Count)
system.cpu.commit.committedInstType_0::FloatSqrt            0      0.00%     76.83% # Class of committed instruction (Count)
system.cpu.commit.committedInstType_0::SimdAdd            0      0.00%     76.83% # Class of committed instruction (Count)
system.cpu.commit.committedInstType_0::SimdAddAcc            0      0.00%     76.83% # Class of committed instruction (Count)
system.cpu.commit.committedInstType_0::SimdAlu            0      0.00%     76.83% # Class of committed instruction (Count)
system.cpu.commit.committedInstType_0::SimdCmp            0      0.00%     76.83% # Class of committed instruction (Count)
system.cpu.commit.committedInstType_0::SimdCvt            0      0.00%     76.83% # Class of committed instruction (Count)
system.cpu.commit.committedInstType_0::SimdMisc            0      0.00%     76.83% # Class of committed instruction (Count)
system.cpu.commit.committedInstType_0::SimdMult            0      0.00%     76.83% # Class of committed instruction (Count)
system.cpu.commit.committedInstType_0::SimdMultAcc            0      0.00%     76.83% # Class of committed instruction (Count)
system.cpu.commit.committedInstType_0::SimdShift            0      0.00%     76.83% # Class of committed instruction (Count)
system.cpu.commit.committedInstType_0::SimdShiftAcc            0      0.00%     76.83% # Class of committed instruction (Count)
system.cpu.commit.committedInstType_0::SimdDiv            0      0.00%     76.83% # Class of committed instruction (Count)
system.cpu.commit.committedInstType_0::SimdSqrt            0      0.00%     76.83% # Class of committed instruction (Count)
system.cpu.commit.committedInstType_0::SimdFloatAdd            0      0.00%     76.83% # Class of committed instruction (Count)
system.cpu.commit.committedInstType_0::SimdFloatAlu            0      0.00%     76.83% # Class of committed instruction (Count)
system.cpu.commit.committedInstType_0::SimdFloatCmp            0      0.00%     76.83% # Class of committed instruction (Count)
system.cpu.commit.committedInstType_0::SimdFloatCvt            0      0.00%     76.83% # Class of committed instruction (Count)
system.cpu.commit.committedInstType_0::SimdFloatDiv            0      0.00%     76.83% # Class of committed instruction (Count)
system.cpu.commit.committedInstType_0::SimdFloatMisc            0      0.00%     76.83% # Class of committed instruction (Count)
system.cpu.commit.committedInstType_0::SimdFloatMult            0      0.00%     76.83% # Class of committed instruction (Count)
system.cpu.commit.committedInstType_0::SimdFloatMultAcc            0      0.00%     76.83% # Class of committed instruction (Count)
system.cpu.commit.committedInstType_0::SimdFloatSqrt            0      0.00%     76.83% # Class of committed instruction (Count)
system.cpu.commit.committedInstType_0::SimdReduceAdd            0      0.00%     76.83% # Class of committed instruction (Count)
system.cpu.commit.committedInstType_0::SimdReduceAlu            0      0.00%     76.83% # Class of committed instruction (Count)
system.cpu.commit.committedInstType_0::SimdReduceCmp            0      0.00%     76.83% # Class of committed instruction (Count)
system.cpu.commit.committedInstType_0::SimdFloatReduceAdd            0      0.00%     76.83% # Class of committed instruction (Count)
system.cpu.commit.committedInstType_0::SimdFloatReduceCmp            0      0.00%     76.83% # Class of committed instruction (Count)
system.cpu.commit.committedInstType_0::SimdAes            0      0.00%     76.83% # Class of committed instruction (Count)
system.cpu.commit.committedInstType_0::SimdAesMix            0      0.00%     76.83% # Class of committed instruction (Count)
system.cpu.commit.committedInstType_0::SimdSha1Hash            0      0.00%     76.83% # Class of committed instruction (Count)
system.cpu.commit.committedInstType_0::SimdSha1Hash2            0      0.00%     76.83% # Class of committed instruction (Count)
system.cpu.commit.committedInstType_0::SimdSha256Hash            0      0.00%     76.83% # Class of committed instruction (Count)
system.cpu.commit.committedInstType_0::SimdSha256Hash2            0      0.00%     76.83% # Class of committed instruction (Count)
system.cpu.commit.committedInstType_0::SimdShaSigma2            0      0.00%     76.83% # Class of committed instruction (Count)
system.cpu.commit.committedInstType_0::SimdShaSigma3            0      0.00%     76.83% # Class of committed instruction (Count)
system.cpu.commit.committedInstType_0::SimdPredAlu            0      0.00%     76.83% # Class of committed instruction (Count)
system.cpu.commit.committedInstType_0::MemRead      1673525     14.56%     91.39% # Class of committed instruction (Count)
system.cpu.commit.committedInstType_0::MemWrite       989077      8.61%     99.99% # Class of committed instruction (Count)
system.cpu.commit.committedInstType_0::FloatMemRead          364      0.00%    100.00% # Class of committed instruction (Count)
system.cpu.commit.committedInstType_0::FloatMemWrite          244      0.00%    100.00% # Class of committed instruction (Count)
system.cpu.commit.committedInstType_0::IprAccess            0      0.00%    100.00% # Class of committed instruction (Count)
system.cpu.commit.committedInstType_0::InstPrefetch            0      0.00%    100.00% # Class of committed instruction (Count)
system.cpu.commit.committedInstType_0::total     11493089                       # Class of committed instruction (Count)
system.cpu.commit.commitEligibleSamples        681681                       # number cycles where commit BW limit reached (Cycle)
system.cpu.dcache.demandHits::cpu.data        2310099                       # number of demand (read+write) hits (Count)
system.cpu.dcache.demandHits::total           2310099                       # number of demand (read+write) hits (Count)
system.cpu.dcache.overallHits::cpu.data       2310099                       # number of overall hits (Count)
system.cpu.dcache.overallHits::total          2310099                       # number of overall hits (Count)
system.cpu.dcache.demandMisses::cpu.data         4989                       # number of demand (read+write) misses (Count)
system.cpu.dcache.demandMisses::total            4989                       # number of demand (read+write) misses (Count)
system.cpu.dcache.overallMisses::cpu.data         4989                       # number of overall misses (Count)
system.cpu.dcache.overallMisses::total           4989                       # number of overall misses (Count)
system.cpu.dcache.demandMissLatency::cpu.data    302876499                       # number of demand (read+write) miss ticks (Tick)
system.cpu.dcache.demandMissLatency::total    302876499                       # number of demand (read+write) miss ticks (Tick)
system.cpu.dcache.overallMissLatency::cpu.data    302876499                       # number of overall miss ticks (Tick)
system.cpu.dcache.overallMissLatency::total    302876499                       # number of overall miss ticks (Tick)
system.cpu.dcache.demandAccesses::cpu.data      2315088                       # number of demand (read+write) accesses (Count)
system.cpu.dcache.demandAccesses::total       2315088                       # number of demand (read+write) accesses (Count)
system.cpu.dcache.overallAccesses::cpu.data      2315088                       # number of overall (read+write) accesses (Count)
system.cpu.dcache.overallAccesses::total      2315088                       # number of overall (read+write) accesses (Count)
system.cpu.dcache.demandMissRate::cpu.data     0.002155                       # miss rate for demand accesses (Ratio)
system.cpu.dcache.demandMissRate::total      0.002155                       # miss rate for demand accesses (Ratio)
system.cpu.dcache.overallMissRate::cpu.data     0.002155                       # miss rate for overall accesses (Ratio)
system.cpu.dcache.overallMissRate::total     0.002155                       # miss rate for overall accesses (Ratio)
system.cpu.dcache.demandAvgMissLatency::cpu.data 60708.859290                       # average overall miss latency ((Cycle/Count))
system.cpu.dcache.demandAvgMissLatency::total 60708.859290                       # average overall miss latency ((Cycle/Count))
system.cpu.dcache.overallAvgMissLatency::cpu.data 60708.859290                       # average overall miss latency ((Cycle/Count))
system.cpu.dcache.overallAvgMissLatency::total 60708.859290                       # average overall miss latency ((Cycle/Count))
system.cpu.dcache.blockedCycles::no_mshrs          499                       # number of cycles access was blocked (Cycle)
system.cpu.dcache.blockedCycles::no_targets            0                       # number of cycles access was blocked (Cycle)
system.cpu.dcache.blockedCauses::no_mshrs           10                       # number of times access was blocked (Count)
system.cpu.dcache.blockedCauses::no_targets            0                       # number of times access was blocked (Count)
system.cpu.dcache.avgBlocked::no_mshrs      49.900000                       # average number of cycles each access was blocked ((Cycle/Count))
system.cpu.dcache.avgBlocked::no_targets          nan                       # average number of cycles each access was blocked ((Cycle/Count))
system.cpu.dcache.writebacks::writebacks         1848                       # number of writebacks (Count)
system.cpu.dcache.writebacks::total              1848                       # number of writebacks (Count)
system.cpu.dcache.demandMshrHits::cpu.data         1885                       # number of demand (read+write) MSHR hits (Count)
system.cpu.dcache.demandMshrHits::total          1885                       # number of demand (read+write) MSHR hits (Count)
system.cpu.dcache.overallMshrHits::cpu.data         1885                       # number of overall MSHR hits (Count)
system.cpu.dcache.overallMshrHits::total         1885                       # number of overall MSHR hits (Count)
system.cpu.dcache.demandMshrMisses::cpu.data         3104                       # number of demand (read+write) MSHR misses (Count)
system.cpu.dcache.demandMshrMisses::total         3104                       # number of demand (read+write) MSHR misses (Count)
system.cpu.dcache.overallMshrMisses::cpu.data         3104                       # number of overall MSHR misses (Count)
system.cpu.dcache.overallMshrMisses::total         3104                       # number of overall MSHR misses (Count)
system.cpu.dcache.demandMshrMissLatency::cpu.data    183987500                       # number of demand (read+write) MSHR miss ticks (Tick)
system.cpu.dcache.demandMshrMissLatency::total    183987500                       # number of demand (read+write) MSHR miss ticks (Tick)
system.cpu.dcache.overallMshrMissLatency::cpu.data    183987500                       # number of overall MSHR miss ticks (Tick)
system.cpu.dcache.overallMshrMissLatency::total    183987500                       # number of overall MSHR miss ticks (Tick)
system.cpu.dcache.demandMshrMissRate::cpu.data     0.001341                       # mshr miss ratio for demand accesses (Ratio)
system.cpu.dcache.demandMshrMissRate::total     0.001341                       # mshr miss ratio for demand accesses (Ratio)
system.cpu.dcache.overallMshrMissRate::cpu.data     0.001341                       # mshr miss ratio for overall accesses (Ratio)
system.cpu.dcache.overallMshrMissRate::total     0.001341                       # mshr miss ratio for overall accesses (Ratio)
system.cpu.dcache.demandAvgMshrMissLatency::cpu.data 59274.323454                       # average overall mshr miss latency ((Cycle/Count))
system.cpu.dcache.demandAvgMshrMissLatency::total 59274.323454                       # average overall mshr miss latency ((Cycle/Count))
system.cpu.dcache.overallAvgMshrMissLatency::cpu.data 59274.323454                       # average overall mshr miss latency ((Cycle/Count))
system.cpu.dcache.overallAvgMshrMissLatency::total 59274.323454                       # average overall mshr miss latency ((Cycle/Count))
system.cpu.dcache.replacements                   2587                       # number of replacements (Count)
system.cpu.dcache.ReadReq.hits::cpu.data      1322320                       # number of ReadReq hits (Count)
system.cpu.dcache.ReadReq.hits::total         1322320                       # number of ReadReq hits (Count)
system.cpu.dcache.ReadReq.misses::cpu.data         3363                       # number of ReadReq misses (Count)
system.cpu.dcache.ReadReq.misses::total          3363                       # number of ReadReq misses (Count)
system.cpu.dcache.ReadReq.missLatency::cpu.data    180850500                       # number of ReadReq miss ticks (Tick)
system.cpu.dcache.ReadReq.missLatency::total    180850500                       # number of ReadReq miss ticks (Tick)
system.cpu.dcache.ReadReq.accesses::cpu.data      1325683                       # number of ReadReq accesses(hits+misses) (Count)
system.cpu.dcache.ReadReq.accesses::total      1325683                       # number of ReadReq accesses(hits+misses) (Count)
system.cpu.dcache.ReadReq.missRate::cpu.data     0.002537                       # miss rate for ReadReq accesses (Ratio)
system.cpu.dcache.ReadReq.missRate::total     0.002537                       # miss rate for ReadReq accesses (Ratio)
system.cpu.dcache.ReadReq.avgMissLatency::cpu.data 53776.538805                       # average ReadReq miss latency ((Tick/Count))
system.cpu.dcache.ReadReq.avgMissLatency::total 53776.538805                       # average ReadReq miss latency ((Tick/Count))
system.cpu.dcache.ReadReq.mshrHits::cpu.data         1876                       # number of ReadReq MSHR hits (Count)
system.cpu.dcache.ReadReq.mshrHits::total         1876                       # number of ReadReq MSHR hits (Count)
system.cpu.dcache.ReadReq.mshrMisses::cpu.data         1487                       # number of ReadReq MSHR misses (Count)
system.cpu.dcache.ReadReq.mshrMisses::total         1487                       # number of ReadReq MSHR misses (Count)
system.cpu.dcache.ReadReq.mshrMissLatency::cpu.data     64097500                       # number of ReadReq MSHR miss ticks (Tick)
system.cpu.dcache.ReadReq.mshrMissLatency::total     64097500                       # number of ReadReq MSHR miss ticks (Tick)
system.cpu.dcache.ReadReq.mshrMissRate::cpu.data     0.001122                       # mshr miss rate for ReadReq accesses (Ratio)
system.cpu.dcache.ReadReq.mshrMissRate::total     0.001122                       # mshr miss rate for ReadReq accesses (Ratio)
system.cpu.dcache.ReadReq.avgMshrMissLatency::cpu.data 43105.245461                       # average ReadReq mshr miss latency ((Tick/Count))
system.cpu.dcache.ReadReq.avgMshrMissLatency::total 43105.245461                       # average ReadReq mshr miss latency ((Tick/Count))
system.cpu.dcache.WriteReq.hits::cpu.data       987779                       # number of WriteReq hits (Count)
system.cpu.dcache.WriteReq.hits::total         987779                       # number of WriteReq hits (Count)
system.cpu.dcache.WriteReq.misses::cpu.data         1626                       # number of WriteReq misses (Count)
system.cpu.dcache.WriteReq.misses::total         1626                       # number of WriteReq misses (Count)
system.cpu.dcache.WriteReq.missLatency::cpu.data    122025999                       # number of WriteReq miss ticks (Tick)
system.cpu.dcache.WriteReq.missLatency::total    122025999                       # number of WriteReq miss ticks (Tick)
system.cpu.dcache.WriteReq.accesses::cpu.data       989405                       # number of WriteReq accesses(hits+misses) (Count)
system.cpu.dcache.WriteReq.accesses::total       989405                       # number of WriteReq accesses(hits+misses) (Count)
system.cpu.dcache.WriteReq.missRate::cpu.data     0.001643                       # miss rate for WriteReq accesses (Ratio)
system.cpu.dcache.WriteReq.missRate::total     0.001643                       # miss rate for WriteReq accesses (Ratio)
system.cpu.dcache.WriteReq.avgMissLatency::cpu.data 75046.739852                       # average WriteReq miss latency ((Tick/Count))
system.cpu.dcache.WriteReq.avgMissLatency::total 75046.739852                       # average WriteReq miss latency ((Tick/Count))
system.cpu.dcache.WriteReq.mshrHits::cpu.data            9                       # number of WriteReq MSHR hits (Count)
system.cpu.dcache.WriteReq.mshrHits::total            9                       # number of WriteReq MSHR hits (Count)
system.cpu.dcache.WriteReq.mshrMisses::cpu.data         1617                       # number of WriteReq MSHR misses (Count)
system.cpu.dcache.WriteReq.mshrMisses::total         1617                       # number of WriteReq MSHR misses (Count)
system.cpu.dcache.WriteReq.mshrMissLatency::cpu.data    119890000                       # number of WriteReq MSHR miss ticks (Tick)
system.cpu.dcache.WriteReq.mshrMissLatency::total    119890000                       # number of WriteReq MSHR miss ticks (Tick)
system.cpu.dcache.WriteReq.mshrMissRate::cpu.data     0.001634                       # mshr miss rate for WriteReq accesses (Ratio)
system.cpu.dcache.WriteReq.mshrMissRate::total     0.001634                       # mshr miss rate for WriteReq accesses (Ratio)
system.cpu.dcache.WriteReq.avgMshrMissLatency::cpu.data 74143.475572                       # average WriteReq mshr miss latency ((Tick/Count))
system.cpu.dcache.WriteReq.avgMshrMissLatency::total 74143.475572                       # average WriteReq mshr miss latency ((Tick/Count))
system.cpu.dcache.power_state.pwrStateResidencyTicks::UNDEFINED   2042535500                       # Cumulative time (in ticks) in various power states (Tick)
system.cpu.dcache.tags.tagsInUse           482.606178                       # Average ticks per tags in use ((Tick/Count))
system.cpu.dcache.tags.totalRefs              2313203                       # Total number of references to valid blocks. (Count)
system.cpu.dcache.tags.sampledRefs               3099                       # Sample count of references to valid blocks. (Count)
system.cpu.dcache.tags.avgRefs             746.435302                       # Average number of references to valid blocks. ((Count/Count))
system.cpu.dcache.tags.warmupTick              176500                       # The tick when the warmup percentage was hit. (Tick)
system.cpu.dcache.tags.occupancies::cpu.data   482.606178                       # Average occupied blocks per tick, per requestor ((Count/Tick))
system.cpu.dcache.tags.avgOccs::cpu.data     0.942590                       # Average percentage of cache occupancy ((Ratio/Tick))
system.cpu.dcache.tags.avgOccs::total        0.942590                       # Average percentage of cache occupancy ((Ratio/Tick))
system.cpu.dcache.tags.occupanciesTaskId::1024          512                       # Occupied blocks per task id (Count)
system.cpu.dcache.tags.ageTaskId_1024::0           44                       # Occupied blocks per task id, per block age (Count)
system.cpu.dcache.tags.ageTaskId_1024::1          115                       # Occupied blocks per task id, per block age (Count)
system.cpu.dcache.tags.ageTaskId_1024::2          269                       # Occupied blocks per task id, per block age (Count)
system.cpu.dcache.tags.ageTaskId_1024::3           84                       # Occupied blocks per task id, per block age (Count)
system.cpu.dcache.tags.ratioOccsTaskId::1024            1                       # Ratio of occupied blocks and all blocks, per task id (Ratio)
system.cpu.dcache.tags.tagAccesses            9263451                       # Number of tag accesses (Count)
system.cpu.dcache.tags.dataAccesses           9263451                       # Number of data accesses (Count)
system.cpu.dcache.tags.power_state.pwrStateResidencyTicks::UNDEFINED   2042535500                       # Cumulative time (in ticks) in various power states (Tick)
system.cpu.decode.idleCycles                  1007115                       # Number of cycles decode is idle (Cycle)
system.cpu.decode.blockedCycles                795926                       # Number of cycles decode is blocked (Cycle)
system.cpu.decode.runCycles                   1865623                       # Number of cycles decode is running (Cycle)
system.cpu.decode.unblockCycles                234783                       # Number of cycles decode is unblocking (Cycle)
system.cpu.decode.squashCycles                  40614                       # Number of cycles decode is squashing (Cycle)
system.cpu.decode.branchResolved               702727                       # Number of times decode resolved a branch (Count)
system.cpu.decode.branchMispred                  8062                       # Number of times decode detected a branch misprediction (Count)
system.cpu.decode.decodedInsts               13760354                       # Number of instructions handled by decode (Count)
system.cpu.decode.squashedInsts                 35139                       # Number of squashed instructions handled by decode (Count)
system.cpu.dtb_walker_cache.blockedCycles::no_mshrs            0                       # number of cycles access was blocked (Cycle)
system.cpu.dtb_walker_cache.blockedCycles::no_targets            0                       # number of cycles access was blocked (Cycle)
system.cpu.dtb_walker_cache.blockedCauses::no_mshrs            0                       # number of times access was blocked (Count)
system.cpu.dtb_walker_cache.blockedCauses::no_targets            0                       # number of times access was blocked (Count)
system.cpu.dtb_walker_cache.avgBlocked::no_mshrs          nan                       # average number of cycles each access was blocked ((Cycle/Count))
system.cpu.dtb_walker_cache.avgBlocked::no_targets          nan                       # average number of cycles each access was blocked ((Cycle/Count))
system.cpu.dtb_walker_cache.replacements            0                       # number of replacements (Count)
system.cpu.dtb_walker_cache.power_state.pwrStateResidencyTicks::UNDEFINED   2042535500                       # Cumulative time (in ticks) in various power states (Tick)
system.cpu.dtb_walker_cache.tags.tagsInUse            0                       # Average ticks per tags in use ((Tick/Count))
system.cpu.dtb_walker_cache.tags.totalRefs            0                       # Total number of references to valid blocks. (Count)
system.cpu.dtb_walker_cache.tags.sampledRefs            0                       # Sample count of references to valid blocks. (Count)
system.cpu.dtb_walker_cache.tags.avgRefs          nan                       # Average number of references to valid blocks. ((Count/Count))
system.cpu.dtb_walker_cache.tags.warmupTick            0                       # The tick when the warmup percentage was hit. (Tick)
system.cpu.dtb_walker_cache.tags.tagAccesses            0                       # Number of tag accesses (Count)
system.cpu.dtb_walker_cache.tags.dataAccesses            0                       # Number of data accesses (Count)
system.cpu.dtb_walker_cache.tags.power_state.pwrStateResidencyTicks::UNDEFINED   2042535500                       # Cumulative time (in ticks) in various power states (Tick)
system.cpu.fetch.icacheStallCycles            1102850                       # Number of cycles fetch is stalled on an Icache miss (Cycle)
system.cpu.fetch.insts                        7369164                       # Number of instructions fetch has processed (Count)
system.cpu.fetch.branches                     1626245                       # Number of branches that fetch encountered (Count)
system.cpu.fetch.predictedBranches             854645                       # Number of branches that fetch has predicted taken (Count)
system.cpu.fetch.cycles                       2789506                       # Number of cycles fetch has run and was not squashing or blocked (Cycle)
system.cpu.fetch.squashCycles                   96932                       # Number of cycles fetch has spent squashing (Cycle)
system.cpu.fetch.miscStallCycles                  373                       # Number of cycles fetch has spent waiting on interrupts, or bad addresses, or out of MSHRs (Cycle)
system.cpu.fetch.pendingTrapStallCycles          2825                       # Number of stall cycles due to pending traps (Cycle)
system.cpu.fetch.pendingQuiesceStallCycles           27                       # Number of stall cycles due to pending quiesce instructions (Cycle)
system.cpu.fetch.icacheWaitRetryStallCycles           14                       # Number of stall cycles due to full MSHR (Cycle)
system.cpu.fetch.cacheLines                    888845                       # Number of cache lines fetched (Count)
system.cpu.fetch.icacheSquashes                 14235                       # Number of outstanding Icache misses that were squashed (Count)
system.cpu.fetch.nisnDist::samples            3944061                       # Number of instructions fetched each cycle (Total) (Count)
system.cpu.fetch.nisnDist::mean              3.595875                       # Number of instructions fetched each cycle (Total) (Count)
system.cpu.fetch.nisnDist::stdev             3.573607                       # Number of instructions fetched each cycle (Total) (Count)
system.cpu.fetch.nisnDist::underflows               0      0.00%      0.00% # Number of instructions fetched each cycle (Total) (Count)
system.cpu.fetch.nisnDist::0                  1615768     40.97%     40.97% # Number of instructions fetched each cycle (Total) (Count)
system.cpu.fetch.nisnDist::1                   205950      5.22%     46.19% # Number of instructions fetched each cycle (Total) (Count)
system.cpu.fetch.nisnDist::2                   183810      4.66%     50.85% # Number of instructions fetched each cycle (Total) (Count)
system.cpu.fetch.nisnDist::3                    87095      2.21%     53.06% # Number of instructions fetched each cycle (Total) (Count)
system.cpu.fetch.nisnDist::4                   170582      4.33%     57.38% # Number of instructions fetched each cycle (Total) (Count)
system.cpu.fetch.nisnDist::5                   130326      3.30%     60.69% # Number of instructions fetched each cycle (Total) (Count)
system.cpu.fetch.nisnDist::6                   140175      3.55%     64.24% # Number of instructions fetched each cycle (Total) (Count)
system.cpu.fetch.nisnDist::7                   110354      2.80%     67.04% # Number of instructions fetched each cycle (Total) (Count)
system.cpu.fetch.nisnDist::8                  1300001     32.96%    100.00% # Number of instructions fetched each cycle (Total) (Count)
system.cpu.fetch.nisnDist::overflows                0      0.00%    100.00% # Number of instructions fetched each cycle (Total) (Count)
system.cpu.fetch.nisnDist::min_value                0                       # Number of instructions fetched each cycle (Total) (Count)
system.cpu.fetch.nisnDist::max_value                8                       # Number of instructions fetched each cycle (Total) (Count)
system.cpu.fetch.nisnDist::total              3944061                       # Number of instructions fetched each cycle (Total) (Count)
system.cpu.fetch.branchRate                  0.398095                       # Number of branch fetches per cycle (Ratio)
system.cpu.fetch.rate                        1.803925                       # Number of inst fetches per cycle ((Count/Cycle))
system.cpu.icache.demandHits::cpu.inst         878588                       # number of demand (read+write) hits (Count)
system.cpu.icache.demandHits::total            878588                       # number of demand (read+write) hits (Count)
system.cpu.icache.overallHits::cpu.inst        878588                       # number of overall hits (Count)
system.cpu.icache.overallHits::total           878588                       # number of overall hits (Count)
system.cpu.icache.demandMisses::cpu.inst        10257                       # number of demand (read+write) misses (Count)
system.cpu.icache.demandMisses::total           10257                       # number of demand (read+write) misses (Count)
system.cpu.icache.overallMisses::cpu.inst        10257                       # number of overall misses (Count)
system.cpu.icache.overallMisses::total          10257                       # number of overall misses (Count)
system.cpu.icache.demandMissLatency::cpu.inst    278389000                       # number of demand (read+write) miss ticks (Tick)
system.cpu.icache.demandMissLatency::total    278389000                       # number of demand (read+write) miss ticks (Tick)
system.cpu.icache.overallMissLatency::cpu.inst    278389000                       # number of overall miss ticks (Tick)
system.cpu.icache.overallMissLatency::total    278389000                       # number of overall miss ticks (Tick)
system.cpu.icache.demandAccesses::cpu.inst       888845                       # number of demand (read+write) accesses (Count)
system.cpu.icache.demandAccesses::total        888845                       # number of demand (read+write) accesses (Count)
system.cpu.icache.overallAccesses::cpu.inst       888845                       # number of overall (read+write) accesses (Count)
system.cpu.icache.overallAccesses::total       888845                       # number of overall (read+write) accesses (Count)
system.cpu.icache.demandMissRate::cpu.inst     0.011540                       # miss rate for demand accesses (Ratio)
system.cpu.icache.demandMissRate::total      0.011540                       # miss rate for demand accesses (Ratio)
system.cpu.icache.overallMissRate::cpu.inst     0.011540                       # miss rate for overall accesses (Ratio)
system.cpu.icache.overallMissRate::total     0.011540                       # miss rate for overall accesses (Ratio)
system.cpu.icache.demandAvgMissLatency::cpu.inst 27141.366871                       # average overall miss latency ((Cycle/Count))
system.cpu.icache.demandAvgMissLatency::total 27141.366871                       # average overall miss latency ((Cycle/Count))
system.cpu.icache.overallAvgMissLatency::cpu.inst 27141.366871                       # average overall miss latency ((Cycle/Count))
system.cpu.icache.overallAvgMissLatency::total 27141.366871                       # average overall miss latency ((Cycle/Count))
system.cpu.icache.blockedCycles::no_mshrs          254                       # number of cycles access was blocked (Cycle)
system.cpu.icache.blockedCycles::no_targets            0                       # number of cycles access was blocked (Cycle)
system.cpu.icache.blockedCauses::no_mshrs            3                       # number of times access was blocked (Count)
system.cpu.icache.blockedCauses::no_targets            0                       # number of times access was blocked (Count)
system.cpu.icache.avgBlocked::no_mshrs      84.666667                       # average number of cycles each access was blocked ((Cycle/Count))
system.cpu.icache.avgBlocked::no_targets          nan                       # average number of cycles each access was blocked ((Cycle/Count))
system.cpu.icache.writebacks::writebacks         8402                       # number of writebacks (Count)
system.cpu.icache.writebacks::total              8402                       # number of writebacks (Count)
system.cpu.icache.demandMshrHits::cpu.inst         1340                       # number of demand (read+write) MSHR hits (Count)
system.cpu.icache.demandMshrHits::total          1340                       # number of demand (read+write) MSHR hits (Count)
system.cpu.icache.overallMshrHits::cpu.inst         1340                       # number of overall MSHR hits (Count)
system.cpu.icache.overallMshrHits::total         1340                       # number of overall MSHR hits (Count)
system.cpu.icache.demandMshrMisses::cpu.inst         8917                       # number of demand (read+write) MSHR misses (Count)
system.cpu.icache.demandMshrMisses::total         8917                       # number of demand (read+write) MSHR misses (Count)
system.cpu.icache.overallMshrMisses::cpu.inst         8917                       # number of overall MSHR misses (Count)
system.cpu.icache.overallMshrMisses::total         8917                       # number of overall MSHR misses (Count)
system.cpu.icache.demandMshrMissLatency::cpu.inst    233018000                       # number of demand (read+write) MSHR miss ticks (Tick)
system.cpu.icache.demandMshrMissLatency::total    233018000                       # number of demand (read+write) MSHR miss ticks (Tick)
system.cpu.icache.overallMshrMissLatency::cpu.inst    233018000                       # number of overall MSHR miss ticks (Tick)
system.cpu.icache.overallMshrMissLatency::total    233018000                       # number of overall MSHR miss ticks (Tick)
system.cpu.icache.demandMshrMissRate::cpu.inst     0.010032                       # mshr miss ratio for demand accesses (Ratio)
system.cpu.icache.demandMshrMissRate::total     0.010032                       # mshr miss ratio for demand accesses (Ratio)
system.cpu.icache.overallMshrMissRate::cpu.inst     0.010032                       # mshr miss ratio for overall accesses (Ratio)
system.cpu.icache.overallMshrMissRate::total     0.010032                       # mshr miss ratio for overall accesses (Ratio)
system.cpu.icache.demandAvgMshrMissLatency::cpu.inst 26131.882920                       # average overall mshr miss latency ((Cycle/Count))
system.cpu.icache.demandAvgMshrMissLatency::total 26131.882920                       # average overall mshr miss latency ((Cycle/Count))
system.cpu.icache.overallAvgMshrMissLatency::cpu.inst 26131.882920                       # average overall mshr miss latency ((Cycle/Count))
system.cpu.icache.overallAvgMshrMissLatency::total 26131.882920                       # average overall mshr miss latency ((Cycle/Count))
system.cpu.icache.replacements                   8402                       # number of replacements (Count)
system.cpu.icache.ReadReq.hits::cpu.inst       878588                       # number of ReadReq hits (Count)
system.cpu.icache.ReadReq.hits::total          878588                       # number of ReadReq hits (Count)
system.cpu.icache.ReadReq.misses::cpu.inst        10257                       # number of ReadReq misses (Count)
system.cpu.icache.ReadReq.misses::total         10257                       # number of ReadReq misses (Count)
system.cpu.icache.ReadReq.missLatency::cpu.inst    278389000                       # number of ReadReq miss ticks (Tick)
system.cpu.icache.ReadReq.missLatency::total    278389000                       # number of ReadReq miss ticks (Tick)
system.cpu.icache.ReadReq.accesses::cpu.inst       888845                       # number of ReadReq accesses(hits+misses) (Count)
system.cpu.icache.ReadReq.accesses::total       888845                       # number of ReadReq accesses(hits+misses) (Count)
system.cpu.icache.ReadReq.missRate::cpu.inst     0.011540                       # miss rate for ReadReq accesses (Ratio)
system.cpu.icache.ReadReq.missRate::total     0.011540                       # miss rate for ReadReq accesses (Ratio)
system.cpu.icache.ReadReq.avgMissLatency::cpu.inst 27141.366871                       # average ReadReq miss latency ((Tick/Count))
system.cpu.icache.ReadReq.avgMissLatency::total 27141.366871                       # average ReadReq miss latency ((Tick/Count))
system.cpu.icache.ReadReq.mshrHits::cpu.inst         1340                       # number of ReadReq MSHR hits (Count)
system.cpu.icache.ReadReq.mshrHits::total         1340                       # number of ReadReq MSHR hits (Count)
system.cpu.icache.ReadReq.mshrMisses::cpu.inst         8917                       # number of ReadReq MSHR misses (Count)
[...]
system.mem_ctrls.dram.perBankWrBursts::14            0                       # Per bank write bursts (Count)
system.mem_ctrls.dram.perBankWrBursts::15           16                       # Per bank write bursts (Count)
system.mem_ctrls.dram.totQLat                39119750                       # Total ticks spent queuing (Tick)
system.mem_ctrls.dram.totBusLat              19650000                       # Total ticks spent in databus transfers (Tick)
system.mem_ctrls.dram.totMemAccLat          112807250                       # Total ticks spent from burst creation until serviced by the DRAM (Tick)
system.mem_ctrls.dram.avgQLat                 9954.13                       # Average queueing delay per DRAM burst ((Tick/Count))
system.mem_ctrls.dram.avgBusLat               5000.00                       # Average bus latency per DRAM burst ((Tick/Count))
system.mem_ctrls.dram.avgMemAccLat           28704.13                       # Average memory access latency per DRAM burst ((Tick/Count))
system.mem_ctrls.dram.readRowHits                2781                       # Number of row buffer hits during reads (Count)
system.mem_ctrls.dram.writeRowHits                 27                       # Number of row buffer hits during writes (Count)
system.mem_ctrls.dram.readRowHitRate            70.76                       # Row buffer hit rate for reads (Ratio)
system.mem_ctrls.dram.writeRowHitRate           81.82                       # Row buffer hit rate for writes (Ratio)
system.mem_ctrls.dram.bytesPerActivate::samples         1144                       # Bytes accessed per row activation (Byte)
system.mem_ctrls.dram.bytesPerActivate::mean   220.475524                       # Bytes accessed per row activation (Byte)
system.mem_ctrls.dram.bytesPerActivate::gmean   147.617070                       # Bytes accessed per row activation (Byte)
system.mem_ctrls.dram.bytesPerActivate::stdev   233.898284                       # Bytes accessed per row activation (Byte)
system.mem_ctrls.dram.bytesPerActivate::0-127          450     39.34%     39.34% # Bytes accessed per row activation (Byte)
system.mem_ctrls.dram.bytesPerActivate::128-255          344     30.07%     69.41% # Bytes accessed per row activation (Byte)
system.mem_ctrls.dram.bytesPerActivate::256-383          157     13.72%     83.13% # Bytes accessed per row activation (Byte)
system.mem_ctrls.dram.bytesPerActivate::384-511           69      6.03%     89.16% # Bytes accessed per row activation (Byte)
system.mem_ctrls.dram.bytesPerActivate::512-639           31      2.71%     91.87% # Bytes accessed per row activation (Byte)
system.mem_ctrls.dram.bytesPerActivate::640-767           17      1.49%     93.36% # Bytes accessed per row activation (Byte)
system.mem_ctrls.dram.bytesPerActivate::768-895           23      2.01%     95.37% # Bytes accessed per row activation (Byte)
system.mem_ctrls.dram.bytesPerActivate::896-1023           17      1.49%     96.85% # Bytes accessed per row activation (Byte)
system.mem_ctrls.dram.bytesPerActivate::1024-1151           36      3.15%    100.00% # Bytes accessed per row activation (Byte)
system.mem_ctrls.dram.bytesPerActivate::total         1144                       # Bytes accessed per row activation (Byte)
system.mem_ctrls.dram.bytesRead                251520                       # Total number of bytes read from DRAM (Byte)
system.mem_ctrls.dram.bytesWritten               2112                       # Total number of bytes written to DRAM (Byte)
system.mem_ctrls.dram.avgRdBW              123.141067                       # Average DRAM read bandwidth in MiBytes/s ((Byte/Second))
system.mem_ctrls.dram.avgWrBW                1.034009                       # Average DRAM write bandwidth in MiBytes/s ((Byte/Second))
system.mem_ctrls.dram.peakBW                 12800.00                       # Theoretical peak bandwidth in MiByte/s ((Byte/Second))
system.mem_ctrls.dram.busUtil                    0.97                       # Data bus utilization in percentage (Ratio)
system.mem_ctrls.dram.busUtilRead                0.96                       # Data bus utilization in percentage for reads (Ratio)
system.mem_ctrls.dram.busUtilWrite               0.01                       # Data bus utilization in percentage for writes (Ratio)
system.mem_ctrls.dram.pageHitRate               70.86                       # Row buffer hit rate, read and write combined (Ratio)
system.mem_ctrls.dram.power_state.pwrStateResidencyTicks::UNDEFINED   2042535500                       # Cumulative time (in ticks) in various power states (Tick)
system.mem_ctrls.dram.rank0.actEnergy         5247900                       # Energy for activate commands per rank (pJ) (Joule)
system.mem_ctrls.dram.rank0.preEnergy         2762760                       # Energy for precharge commands per rank (pJ) (Joule)
system.mem_ctrls.dram.rank0.readEnergy       16793280                       # Energy for read commands per rank (pJ) (Joule)
system.mem_ctrls.dram.rank0.writeEnergy         78300                       # Energy for write commands per rank (pJ) (Joule)
system.mem_ctrls.dram.rank0.refreshEnergy 161035680.000000                       # Energy for refresh commands per rank (pJ) (Joule)
system.mem_ctrls.dram.rank0.actBackEnergy    670365600                       # Energy for active background per rank (pJ) (Joule)
system.mem_ctrls.dram.rank0.preBackEnergy    219815520                       # Energy for precharge background per rank (pJ) (Joule)
system.mem_ctrls.dram.rank0.actPowerDownEnergy            0                       # Energy for active power-down per rank (pJ) (Joule)
system.mem_ctrls.dram.rank0.prePowerDownEnergy            0                       # Energy for precharge power-down per rank (pJ) (Joule)
system.mem_ctrls.dram.rank0.selfRefreshEnergy            0                       # Energy for self refresh per rank (pJ) (Joule)
system.mem_ctrls.dram.rank0.totalEnergy    1076099040                       # Total energy per rank (pJ) (Joule)
system.mem_ctrls.dram.rank0.averagePower   526.844718                       # Core power per rank (mW) (Watt)
system.mem_ctrls.dram.rank0.totalIdleTime            0                       # Total Idle time Per DRAM Rank (Tick)
system.mem_ctrls.dram.rank0.pwrStateTime::IDLE    565013500                       # Time in different power states (Tick)
system.mem_ctrls.dram.rank0.pwrStateTime::REF     68120000                       # Time in different power states (Tick)
system.mem_ctrls.dram.rank0.pwrStateTime::SREF            0                       # Time in different power states (Tick)
system.mem_ctrls.dram.rank0.pwrStateTime::PRE_PDN            0                       # Time in different power states (Tick)
system.mem_ctrls.dram.rank0.pwrStateTime::ACT   1409402000                       # Time in different power states (Tick)
system.mem_ctrls.dram.rank0.pwrStateTime::ACT_PDN            0                       # Time in different power states (Tick)
system.mem_ctrls.dram.rank1.actEnergy         2998800                       # Energy for activate commands per rank (pJ) (Joule)
system.mem_ctrls.dram.rank1.preEnergy         1578720                       # Energy for precharge commands per rank (pJ) (Joule)
system.mem_ctrls.dram.rank1.readEnergy       11266920                       # Energy for read commands per rank (pJ) (Joule)
system.mem_ctrls.dram.rank1.writeEnergy         93960                       # Energy for write commands per rank (pJ) (Joule)
system.mem_ctrls.dram.rank1.refreshEnergy 161035680.000000                       # Energy for refresh commands per rank (pJ) (Joule)
system.mem_ctrls.dram.rank1.actBackEnergy    316405290                       # Energy for active background per rank (pJ) (Joule)
system.mem_ctrls.dram.rank1.preBackEnergy    517887360                       # Energy for precharge background per rank (pJ) (Joule)
system.mem_ctrls.dram.rank1.actPowerDownEnergy            0                       # Energy for active power-down per rank (pJ) (Joule)
system.mem_ctrls.dram.rank1.prePowerDownEnergy            0                       # Energy for precharge power-down per rank (pJ) (Joule)
system.mem_ctrls.dram.rank1.selfRefreshEnergy            0                       # Energy for self refresh per rank (pJ) (Joule)
system.mem_ctrls.dram.rank1.totalEnergy    1011266730                       # Total energy per rank (pJ) (Joule)
system.mem_ctrls.dram.rank1.averagePower   495.103625                       # Core power per rank (mW) (Watt)
system.mem_ctrls.dram.rank1.totalIdleTime            0                       # Total Idle time Per DRAM Rank (Tick)
system.mem_ctrls.dram.rank1.pwrStateTime::IDLE   1343327500                       # Time in different power states (Tick)
system.mem_ctrls.dram.rank1.pwrStateTime::REF     68120000                       # Time in different power states (Tick)
system.mem_ctrls.dram.rank1.pwrStateTime::SREF            0                       # Time in different power states (Tick)
system.mem_ctrls.dram.rank1.pwrStateTime::PRE_PDN            0                       # Time in different power states (Tick)
system.mem_ctrls.dram.rank1.pwrStateTime::ACT    631088000                       # Time in different power states (Tick)
system.mem_ctrls.dram.rank1.pwrStateTime::ACT_PDN            0                       # Time in different power states (Tick)
system.mem_ctrls.power_state.pwrStateResidencyTicks::UNDEFINED   2042535500                       # Cumulative time (in ticks) in various power states (Tick)
system.membus.transDist::ReadResp                2449                       # Transaction distribution (Count)
system.membus.transDist::WritebackDirty            56                       # Transaction distribution (Count)
system.membus.transDist::CleanEvict               194                       # Transaction distribution (Count)
system.membus.transDist::ReadExReq               1485                       # Transaction distribution (Count)
system.membus.transDist::ReadExResp              1485                       # Transaction distribution (Count)
system.membus.transDist::ReadSharedReq           2449                       # Transaction distribution (Count)
system.membus.pktCount_system.l2.mem_side_port::system.mem_ctrls.port         8118                       # Packet count per connected requestor and responder (Count)
system.membus.pktCount_system.l2.mem_side_port::total         8118                       # Packet count per connected requestor and responder (Count)
system.membus.pktCount::total                    8118                       # Packet count per connected requestor and responder (Count)
system.membus.pktSize_system.l2.mem_side_port::system.mem_ctrls.port       255360                       # Cumulative packet size per connected requestor and responder (Byte)
system.membus.pktSize_system.l2.mem_side_port::total       255360                       # Cumulative packet size per connected requestor and responder (Byte)
system.membus.pktSize::total                   255360                       # Cumulative packet size per connected requestor and responder (Byte)
system.membus.snoops                                0                       # Total snoops (Count)
system.membus.snoopTraffic                          0                       # Total snoop traffic (Byte)
system.membus.snoopFanout::samples               3934                       # Request fanout histogram (Count)
system.membus.snoopFanout::mean                     0                       # Request fanout histogram (Count)
system.membus.snoopFanout::stdev                    0                       # Request fanout histogram (Count)
system.membus.snoopFanout::underflows               0      0.00%      0.00% # Request fanout histogram (Count)
system.membus.snoopFanout::0                     3934    100.00%    100.00% # Request fanout histogram (Count)
system.membus.snoopFanout::1                        0      0.00%    100.00% # Request fanout histogram (Count)
system.membus.snoopFanout::overflows                0      0.00%    100.00% # Request fanout histogram (Count)
system.membus.snoopFanout::min_value                0                       # Request fanout histogram (Count)
system.membus.snoopFanout::max_value                0                       # Request fanout histogram (Count)
system.membus.snoopFanout::total                 3934                       # Request fanout histogram (Count)
system.membus.power_state.pwrStateResidencyTicks::UNDEFINED   2042535500                       # Cumulative time (in ticks) in various power states (Tick)
system.membus.reqLayer2.occupancy             5323000                       # Layer occupancy (ticks) (Tick)
system.membus.reqLayer2.utilization               0.0                       # Layer utilization (Ratio)
system.membus.respLayer1.occupancy           20960250                       # Layer occupancy (ticks) (Tick)
system.membus.respLayer1.utilization              0.0                       # Layer utilization (Ratio)
system.membus.snoop_filter.totRequests           4184                       # Total number of requests made to the snoop filter. (Count)
system.membus.snoop_filter.hitSingleRequests          250                       # Number of requests hitting in the snoop filter with a single holder of the requested data. (Count)
system.membus.snoop_filter.hitMultiRequests            0                       # Number of requests hitting in the snoop filter with multiple (>1) holders of the requested data. (Count)
system.membus.snoop_filter.totSnoops                0                       # Total number of snoops made to the snoop filter. (Count)
system.membus.snoop_filter.hitSingleSnoops            0                       # Number of snoops hitting in the snoop filter with a single holder of the requested data. (Count)
system.membus.snoop_filter.hitMultiSnoops            0                       # Number of snoops hitting in the snoop filter with multiple (>1) holders of the requested data. (Count)
system.tol2bus.transDist::ReadResp              10402                       # Transaction distribution (Count)
system.tol2bus.transDist::WritebackDirty         1904                       # Transaction distribution (Count)
system.tol2bus.transDist::WritebackClean         8402                       # Transaction distribution (Count)
system.tol2bus.transDist::CleanEvict             1018                       # Transaction distribution (Count)
system.tol2bus.transDist::UpgradeReq                5                       # Transaction distribution (Count)
system.tol2bus.transDist::UpgradeResp               5                       # Transaction distribution (Count)
system.tol2bus.transDist::ReadExReq              1613                       # Transaction distribution (Count)
system.tol2bus.transDist::ReadExResp             1613                       # Transaction distribution (Count)
system.tol2bus.transDist::ReadCleanReq           8916                       # Transaction distribution (Count)
system.tol2bus.transDist::ReadSharedReq          1486                       # Transaction distribution (Count)
system.tol2bus.pktCount_system.cpu.icache.mem_side_port::system.l2.cpu_side_port        26231                       # Packet count per connected requestor and responder (Count)
system.tol2bus.pktCount_system.cpu.dcache.mem_side_port::system.l2.cpu_side_port         8795                       # Packet count per connected requestor and responder (Count)
system.tol2bus.pktCount::total                  35026                       # Packet count per connected requestor and responder (Count)
system.tol2bus.pktSize_system.cpu.icache.mem_side_port::system.l2.cpu_side_port      1108160                       # Cumulative packet size per connected requestor and responder (Byte)
system.tol2bus.pktSize_system.cpu.dcache.mem_side_port::system.l2.cpu_side_port       316608                       # Cumulative packet size per connected requestor and responder (Byte)
system.tol2bus.pktSize::total                 1424768                       # Cumulative packet size per connected requestor and responder (Byte)
system.tol2bus.snoops                             338                       # Total snoops (Count)
system.tol2bus.snoopTraffic                      3776                       # Total snoop traffic (Byte)
system.tol2bus.snoopFanout::samples             12355                       # Request fanout histogram (Count)
system.tol2bus.snoopFanout::mean             0.007770                       # Request fanout histogram (Count)
system.tol2bus.snoopFanout::stdev            0.087809                       # Request fanout histogram (Count)
system.tol2bus.snoopFanout::underflows              0      0.00%      0.00% # Request fanout histogram (Count)
system.tol2bus.snoopFanout::0                   12259     99.22%     99.22% # Request fanout histogram (Count)
system.tol2bus.snoopFanout::1                      96      0.78%    100.00% # Request fanout histogram (Count)
system.tol2bus.snoopFanout::2                       0      0.00%    100.00% # Request fanout histogram (Count)
system.tol2bus.snoopFanout::3                       0      0.00%    100.00% # Request fanout histogram (Count)
system.tol2bus.snoopFanout::4                       0      0.00%    100.00% # Request fanout histogram (Count)
system.tol2bus.snoopFanout::overflows               0      0.00%    100.00% # Request fanout histogram (Count)
system.tol2bus.snoopFanout::min_value               0                       # Request fanout histogram (Count)
system.tol2bus.snoopFanout::max_value               1                       # Request fanout histogram (Count)
system.tol2bus.snoopFanout::total               12355                       # Request fanout histogram (Count)
system.tol2bus.power_state.pwrStateResidencyTicks::UNDEFINED   2042535500                       # Cumulative time (in ticks) in various power states (Tick)
system.tol2bus.reqLayer0.occupancy           21754500                       # Layer occupancy (ticks) (Tick)
system.tol2bus.reqLayer0.utilization              0.0                       # Layer utilization (Ratio)
system.tol2bus.respLayer0.occupancy          13374998                       # Layer occupancy (ticks) (Tick)
system.tol2bus.respLayer0.utilization             0.0                       # Layer utilization (Ratio)
system.tol2bus.respLayer1.occupancy           4651000                       # Layer occupancy (ticks) (Tick)
system.tol2bus.respLayer1.utilization             0.0                       # Layer utilization (Ratio)
system.tol2bus.snoop_filter.totRequests         23009                       # Total number of requests made to the snoop filter. (Count)
system.tol2bus.snoop_filter.hitSingleRequests        10994                       # Number of requests hitting in the snoop filter with a single holder of the requested data. (Count)
system.tol2bus.snoop_filter.hitMultiRequests            6                       # Number of requests hitting in the snoop filter with multiple (>1) holders of the requested data. (Count)
system.tol2bus.snoop_filter.totSnoops              86                       # Total number of snoops made to the snoop filter. (Count)
system.tol2bus.snoop_filter.hitSingleSnoops           86                       # Number of snoops hitting in the snoop filter with a single holder of the requested data. (Count)
system.tol2bus.snoop_filter.hitMultiSnoops            0                       # Number of snoops hitting in the snoop filter with multiple (>1) holders of the requested data. (Count)
system.voltage_domain.voltage                       1                       # Voltage in Volts (Volt)
system.workload.inst.arm                            0                       # number of arm instructions executed (Count)
system.workload.inst.quiesce                        0                       # number of quiesce instructions executed (Count)

---------- End Simulation Statistics   ----------
