
---------- Begin Simulation Statistics ----------
simSeconds                                   0.000057                       # Number of seconds simulated (Second)
simTicks                                     56646000                       # Number of ticks simulated (Tick)
finalTick                                    56646000                       # Number of ticks from beginning of simulation (restored from checkpoints and never reset) (Tick)
simFreq                                  1000000000000                       # The number of ticks per simulated second ((Tick/Second))
hostSeconds                                      0.43                       # Real time elapsed on the host (Second)
hostTickRate                                130819932                       # The number of ticks simulated per host second (ticks/s) ((Tick/Second))
hostMemory                                     652952                       # Number of bytes of host memory used (Byte)
simInsts                                        22877                       # Number of instructions simulated (Count)
simOps                                          47474                       # Number of ops (including micro ops) simulated (Count)
hostInstRate                                    52813                       # Simulator instruction rate (inst/s) ((Count/Second))
hostOpRate                                     109595                       # Simulator op (including micro ops) rate (op/s) ((Count/Second))
system.clk_domain.clock                          1000                       # Clock period in ticks (Tick)
system.cpu.numCycles                           113293                       # Number of cpu cycles simulated (Cycle)
system.cpu.numWorkItemsStarted                      0                       # Number of work items this cpu started (Count)
system.cpu.numWorkItemsCompleted                    0                       # Number of work items this cpu completed (Count)
system.cpu.instsAdded                           79879                       # Number of instructions added to the IQ (excludes non-spec) (Count)
system.cpu.nonSpecInstsAdded                      268                       # Number of non-speculative instructions added to the IQ (Count)
system.cpu.instsIssued                          69969                       # Number of instructions issued (Count)
system.cpu.squashedInstsIssued                    220                       # Number of squashed instructions issued (Count)
system.cpu.squashedInstsExamined                32651                       # Number of squashed instructions iterated over during squash; mainly for profiling (Count)
system.cpu.squashedOperandsExamined             44183                       # Number of squashed operands that are examined and possibly removed from graph (Count)
system.cpu.squashedNonSpecRemoved                 228                       # Number of squashed non-spec instructions that were removed (Count)
system.cpu.numIssuedDist::samples               57019                       # Number of insts issued each cycle (Count)
system.cpu.numIssuedDist::mean               1.227117                       # Number of insts issued each cycle (Count)
system.cpu.numIssuedDist::stdev              2.110702                       # Number of insts issued each cycle (Count)
system.cpu.numIssuedDist::underflows                0      0.00%      0.00% # Number of insts issued each cycle (Count)
system.cpu.numIssuedDist::0                     38469     67.47%     67.47% # Number of insts issued each cycle (Count)
system.cpu.numIssuedDist::1                      3080      5.40%     72.87% # Number of insts issued each cycle (Count)
system.cpu.numIssuedDist::2                      2789      4.89%     77.76% # Number of insts issued each cycle (Count)
system.cpu.numIssuedDist::3                      3054      5.36%     83.12% # Number of insts issued each cycle (Count)
system.cpu.numIssuedDist::4                      3102      5.44%     88.56% # Number of insts issued each cycle (Count)
system.cpu.numIssuedDist::5                      2284      4.01%     92.56% # Number of insts issued each cycle (Count)
system.cpu.numIssuedDist::6                      2053      3.60%     96.16% # Number of insts issued each cycle (Count)
system.cpu.numIssuedDist::7                      1501      2.63%     98.80% # Number of insts issued each cycle (Count)
system.cpu.numIssuedDist::8                       687      1.20%    100.00% # Number of insts issued each cycle (Count)
system.cpu.numIssuedDist::overflows                 0      0.00%    100.00% # Number of insts issued each cycle (Count)
system.cpu.numIssuedDist::min_value                 0                       # Number of insts issued each cycle (Count)
system.cpu.numIssuedDist::max_value                 8                       # Number of insts issued each cycle (Count)
system.cpu.numIssuedDist::total                 57019                       # Number of insts issued each cycle (Count)
system.cpu.statFuBusy::No_OpClass                   0      0.00%      0.00% # attempts to use FU when none available (Count)
system.cpu.statFuBusy::IntAlu                     719     74.05%     74.05% # attempts to use FU when none available (Count)
system.cpu.statFuBusy::IntMult                      0      0.00%     74.05% # attempts to use FU when none available (Count)
system.cpu.statFuBusy::IntDiv                       0      0.00%     74.05% # attempts to use FU when none available (Count)
system.cpu.statFuBusy::FloatAdd                     0      0.00%     74.05% # attempts to use FU when none available (Count)
system.cpu.statFuBusy::FloatCmp                     0      0.00%     74.05% # attempts to use FU when none available (Count)
system.cpu.statFuBusy::FloatCvt                     0      0.00%     74.05% # attempts to use FU when none available (Count)
system.cpu.statFuBusy::FloatMult                    0      0.00%     74.05% # attempts to use FU when none available (Count)
system.cpu.statFuBusy::FloatMultAcc                 0      0.00%     74.05% # attempts to use FU when none available (Count)
system.cpu.statFuBusy::FloatDiv                     0      0.00%     74.05% # attempts to use FU when none available (Count)
system.cpu.statFuBusy::FloatMisc                    0      0.00%     74.05% # attempts to use FU when none available (Count)
system.cpu.statFuBusy::FloatSqrt                    0      0.00%     74.05% # attempts to use FU when none available (Count)
system.cpu.statFuBusy::SimdAdd                      0      0.00%     74.05% # attempts to use FU when none available (Count)
system.cpu.statFuBusy::SimdAddAcc                   0      0.00%     74.05% # attempts to use FU when none available (Count)
system.cpu.statFuBusy::SimdAlu                      0      0.00%     74.05% # attempts to use FU when none available (Count)
system.cpu.statFuBusy::SimdCmp                      0      0.00%     74.05% # attempts to use FU when none available (Count)
system.cpu.statFuBusy::SimdCvt                      0      0.00%     74.05% # attempts to use FU when none available (Count)
system.cpu.statFuBusy::SimdMisc                     0      0.00%     74.05% # attempts to use FU when none available (Count)
system.cpu.statFuBusy::SimdMult                     0      0.00%     74.05% # attempts to use FU when none available (Count)
system.cpu.statFuBusy::SimdMultAcc                  0      0.00%     74.05% # attempts to use FU when none available (Count)
system.cpu.statFuBusy::SimdShift                    0      0.00%     74.05% # attempts to use FU when none available (Count)
system.cpu.statFuBusy::SimdShiftAcc                 0      0.00%     74.05% # attempts to use FU when none available (Count)
system.cpu.statFuBusy::SimdDiv                      0      0.00%     74.05% # attempts to use FU when none available (Count)
system.cpu.statFuBusy::SimdSqrt                     0      0.00%     74.05% # attempts to use FU when none available (Count)
system.cpu.statFuBusy::SimdFloatAdd                 0      0.00%     74.05% # attempts to use FU when none available (Count)
system.cpu.statFuBusy::SimdFloatAlu                 0      0.00%     74.05% # attempts to use FU when none available (Count)
system.cpu.statFuBusy::SimdFloatCmp                 0      0.00%     74.05% # attempts to use FU when none available (Count)
system.cpu.statFuBusy::SimdFloatCvt                 0      0.00%     74.05% # attempts to use FU when none available (Count)
system.cpu.statFuBusy::SimdFloatDiv                 0      0.00%     74.05% # attempts to use FU when none available (Count)
system.cpu.statFuBusy::SimdFloatMisc                0      0.00%     74.05% # attempts to use FU when none available (Count)
system.cpu.statFuBusy::SimdFloatMult                0      0.00%     74.05% # attempts to use FU when none available (Count)
system.cpu.statFuBusy::SimdFloatMultAcc             0      0.00%     74.05% # attempts to use FU when none available (Count)
system.cpu.statFuBusy::SimdFloatSqrt                0      0.00%     74.05% # attempts to use FU when none available (Count)
system.cpu.statFuBusy::SimdReduceAdd                0      0.00%     74.05% # attempts to use FU when none available (Count)
system.cpu.statFuBusy::SimdReduceAlu                0      0.00%     74.05% # attempts to use FU when none available (Count)
system.cpu.statFuBusy::SimdReduceCmp                0      0.00%     74.05% # attempts to use FU when none available (Count)
system.cpu.statFuBusy::SimdFloatReduceAdd            0      0.00%     74.05% # attempts to use FU when none available (Count)
system.cpu.statFuBusy::SimdFloatReduceCmp            0      0.00%     74.05% # attempts to use FU when none available (Count)
system.cpu.statFuBusy::SimdAes                      0      0.00%     74.05% # attempts to use FU when none available (Count)
system.cpu.statFuBusy::SimdAesMix                   0      0.00%     74.05% # attempts to use FU when none available (Count)
system.cpu.statFuBusy::SimdSha1Hash                 0      0.00%     74.05% # attempts to use FU when none available (Count)
system.cpu.statFuBusy::SimdSha1Hash2                0      0.00%     74.05% # attempts to use FU when none available (Count)
system.cpu.statFuBusy::SimdSha256Hash               0      0.00%     74.05% # attempts to use FU when none available (Count)
system.cpu.statFuBusy::SimdSha256Hash2              0      0.00%     74.05% # attempts to use FU when none available (Count)
system.cpu.statFuBusy::SimdShaSigma2                0      0.00%     74.05% # attempts to use FU when none available (Count)
system.cpu.statFuBusy::SimdShaSigma3                0      0.00%     74.05% # attempts to use FU when none available (Count)
system.cpu.statFuBusy::SimdPredAlu                  0      0.00%     74.05% # attempts to use FU when none available (Count)
system.cpu.statFuBusy::MemRead                    161     16.58%     90.63% # attempts to use FU when none available (Count)
system.cpu.statFuBusy::MemWrite                    91      9.37%    100.00% # attempts to use FU when none available (Count)
system.cpu.statFuBusy::FloatMemRead                 0      0.00%    100.00% # attempts to use FU when none available (Count)
system.cpu.statFuBusy::FloatMemWrite                0      0.00%    100.00% # attempts to use FU when none available (Count)
system.cpu.statFuBusy::IprAccess                    0      0.00%    100.00% # attempts to use FU when none available (Count)
system.cpu.statFuBusy::InstPrefetch                 0      0.00%    100.00% # attempts to use FU when none available (Count)
system.cpu.statIssuedInstType_0::No_OpClass          258      0.37%      0.37% # Number of instructions issued per FU type, per thread (Count)
system.cpu.statIssuedInstType_0::IntAlu         53433     76.37%     76.74% # Number of instructions issued per FU type, per thread (Count)
system.cpu.statIssuedInstType_0::IntMult           26      0.04%     76.77% # Number of instructions issued per FU type, per thread (Count)
system.cpu.statIssuedInstType_0::IntDiv            43      0.06%     76.83% # Number of instructions issued per FU type, per thread (Count)
system.cpu.statIssuedInstType_0::FloatAdd            0      0.00%     76.83% # Number of instructions issued per FU type, per thread (Count)
system.cpu.statIssuedInstType_0::FloatCmp            0      0.00%     76.83% # Number of instructions issued per FU type, per thread (Count)
system.cpu.statIssuedInstType_0::FloatCvt            0      0.00%     76.83% # Number of instructions issued per FU type, per thread (Count)
system.cpu.statIssuedInstType_0::FloatMult            0      0.00%     76.83% # Number of instructions issued per FU type, per thread (Count)
system.cpu.statIssuedInstType_0::FloatMultAcc            0      0.00%     76.83% # Number of instructions issued per FU type, per thread (Count)
system.cpu.statIssuedInstType_0::FloatDiv            0      0.00%     76.83% # Number of instructions issued per FU type, per thread (Count)
system.cpu.statIssuedInstType_0::FloatMisc            0      0.00%     76.83% # Number of instructions issued per FU type, per thread (Count)
system.cpu.statIssuedInstType_0::FloatSqrt            0      0.00%     76.83% # Number of instructions issued per FU type, per thread (Count)
system.cpu.statIssuedInstType_0::SimdAdd            0      0.00%     76.83% # Number of instructions issued per FU type, per thread (Count)
system.cpu.statIssuedInstType_0::SimdAddAcc            0      0.00%     76.83% # Number of instructions issued per FU type, per thread (Count)
system.cpu.statIssuedInstType_0::SimdAlu            0      0.00%     76.83% # Number of instructions issued per FU type, per thread (Count)
system.cpu.statIssuedInstType_0::SimdCmp            0      0.00%     76.83% # Number of instructions issued per FU type, per thread (Count)
system.cpu.statIssuedInstType_0::SimdCvt            0      0.00%     76.83% # Number of instructions issued per FU type, per thread (Count)
system.cpu.statIssuedInstType_0::SimdMisc            0      0.00%     76.83% # Number of instructions issued per FU type, per thread (Count)
system.cpu.statIssuedInstType_0::SimdMult            0      0.00%     76.83% # Number of instructions issued per FU type, per thread (Count)
system.cpu.statIssuedInstType_0::SimdMultAcc            0      0.00%     76.83% # Number of instructions issued per FU type, per thread (Count)
system.cpu.statIssuedInstType_0::SimdShift            0      0.00%     76.83% # Number of instructions issued per FU type, per thread (Count)
system.cpu.statIssuedInstType_0::SimdShiftAcc            0      0.00%     76.83% # Number of instructions issued per FU type, per thread (Count)
system.cpu.statIssuedInstType_0::SimdDiv            0      0.00%     76.83% # Number of instructions issued per FU type, per thread (Count)
system.cpu.statIssuedInstType_0::SimdSqrt            0      0.00%     76.83% # Number of instructions issued per FU type, per thread (Count)
system.cpu.statIssuedInstType_0::SimdFloatAdd            0      0.00%     76.83% # Number of instructions issued per FU type, per thread (Count)
system.cpu.statIssuedInstType_0::SimdFloatAlu            0      0.00%     76.83% # Number of instructions issued per FU type, per thread (Count)
system.cpu.statIssuedInstType_0::SimdFloatCmp            0      0.00%     76.83% # Number of instructions issued per FU type, per thread (Count)
system.cpu.statIssuedInstType_0::SimdFloatCvt            0      0.00%     76.83% # Number of instructions issued per FU type, per thread (Count)
system.cpu.statIssuedInstType_0::SimdFloatDiv            0      0.00%     76.83% # Number of instructions issued per FU type, per thread (Count)
system.cpu.statIssuedInstType_0::SimdFloatMisc            0      0.00%     76.83% # Number of instructions issued per FU type, per thread (Count)
system.cpu.statIssuedInstType_0::SimdFloatMult            0      0.00%     76.83% # Number of instructions issued per FU type, per thread (Count)
system.cpu.statIssuedInstType_0::SimdFloatMultAcc            0      0.00%     76.83% # Number of instructions issued per FU type, per thread (Count)
system.cpu.statIssuedInstType_0::SimdFloatSqrt            0      0.00%     76.83% # Number of instructions issued per FU type, per thread (Count)
system.cpu.statIssuedInstType_0::SimdReduceAdd            0      0.00%     76.83% # Number of instructions issued per FU type, per thread (Count)
system.cpu.statIssuedInstType_0::SimdReduceAlu            0      0.00%     76.83% # Number of instructions issued per FU type, per thread (Count)
system.cpu.statIssuedInstType_0::SimdReduceCmp            0      0.00%     76.83% # Number of instructions issued per FU type, per thread (Count)
system.cpu.statIssuedInstType_0::SimdFloatReduceAdd            0      0.00%     76.83% # Number of instructions issued per FU type, per thread (Count)
system.cpu.statIssuedInstType_0::SimdFloatReduceCmp            0      0.00%     76.83% # Number of instructions issued per FU type, per thread (Count)
system.cpu.statIssuedInstType_0::SimdAes            0      0.00%     76.83% # Number of instructions issued per FU type, per thread (Count)
system.cpu.statIssuedInstType_0::SimdAesMix            0      0.00%     76.83% # Number of instructions issued per FU type, per thread (Count)
system.cpu.statIssuedInstType_0::SimdSha1Hash            0      0.00%     76.83% # Number of instructions issued per FU type, per thread (Count)
system.cpu.statIssuedInstType_0::SimdSha1Hash2            0      0.00%     76.83% # Number of instructions issued per FU type, per thread (Count)
system.cpu.statIssuedInstType_0::SimdSha256Hash            0      0.00%     76.83% # Number of instructions issued per FU type, per thread (Count)
system.cpu.statIssuedInstType_0::SimdSha256Hash2            0      0.00%     76.83% # Number of instructions issued per FU type, per thread (Count)
system.cpu.statIssuedInstType_0::SimdShaSigma2            0      0.00%     76.83% # Number of instructions issued per FU type, per thread (Count)
system.cpu.statIssuedInstType_0::SimdShaSigma3            0      0.00%     76.83% # Number of instructions issued per FU type, per thread (Count)
system.cpu.statIssuedInstType_0::SimdPredAlu            0      0.00%     76.83% # Number of instructions issued per FU type, per thread (Count)
system.cpu.statIssuedInstType_0::MemRead         9299     13.29%     90.12% # Number of instructions issued per FU type, per thread (Count)
system.cpu.statIssuedInstType_0::MemWrite         6902      9.86%     99.99% # Number of instructions issued per FU type, per thread (Count)
system.cpu.statIssuedInstType_0::FloatMemRead            5      0.01%    100.00% # Number of instructions issued per FU type, per thread (Count)
system.cpu.statIssuedInstType_0::FloatMemWrite            3      0.00%    100.00% # Number of instructions issued per FU type, per thread (Count)
system.cpu.statIssuedInstType_0::IprAccess            0      0.00%    100.00% # Number of instructions issued per FU type, per thread (Count)
system.cpu.statIssuedInstType_0::InstPrefetch            0      0.00%    100.00% # Number of instructions issued per FU type, per thread (Count)
system.cpu.statIssuedInstType_0::total          69969                       # Number of instructions issued per FU type, per thread (Count)
system.cpu.issueRate                         0.617593                       # Inst issue rate ((Count/Cycle))
system.cpu.fuBusy                                 971                       # FU busy when requested (Count)
system.cpu.fuBusyRate                        0.013878                       # FU busy rate (busy events/executed inst) ((Count/Count))
system.cpu.intInstQueueReads                   198120                       # Number of integer instruction queue reads (Count)
system.cpu.intInstQueueWrites                  112881                       # Number of integer instruction queue writes (Count)
system.cpu.intInstQueueWakeupAccesses           66581                       # Number of integer instruction queue wakeup accesses (Count)
system.cpu.fpInstQueueReads                        28                       # Number of floating instruction queue reads (Count)
system.cpu.fpInstQueueWrites                       20                       # Number of floating instruction queue writes (Count)
system.cpu.fpInstQueueWakeupAccesses               12                       # Number of floating instruction queue wakeup accesses (Count)
system.cpu.vecInstQueueReads                        0                       # Number of vector instruction queue reads (Count)
system.cpu.vecInstQueueWrites                       0                       # Number of vector instruction queue writes (Count)
system.cpu.vecInstQueueWakeupAccesses               0                       # Number of vector instruction queue wakeup accesses (Count)
system.cpu.intAluAccesses                       70668                       # Number of integer alu accesses (Count)
system.cpu.fpAluAccesses                           14                       # Number of floating point alu accesses (Count)
system.cpu.vecAluAccesses                           0                       # Number of vector alu accesses (Count)
system.cpu.idleCycles                               0                       # Number of cycles IEW is idle (Cycle)
system.cpu.squashCycles                          1216                       # Number of cycles IEW is squashing (Cycle)
system.cpu.blockCycles                           4930                       # Number of cycles IEW is blocking (Cycle)
system.cpu.unblockCycles                          613                       # Number of cycles IEW is unblocking (Cycle)
system.cpu.dispatchedInsts                      80147                       # Number of instructions dispatched to IQ (Count)
system.cpu.dispSquashedInsts                      108                       # Number of squashed instructions skipped by dispatch (Count)
system.cpu.dispLoadInsts                        10583                       # Number of dispatched load instructions (Count)
system.cpu.dispStoreInsts                        8154                       # Number of dispatched store instructions (Count)
system.cpu.dispNonSpecInsts                       111                       # Number of dispatched non-speculative instructions (Count)
system.cpu.iqFullEvents                            25                       # Number of times the IQ has become full, causing a stall (Count)
system.cpu.lsqFullEvents                          579                       # Number of times the LSQ has become full, causing a stall (Count)
system.cpu.memOrderViolationEvents                109                       # Number of memory order violations (Count)
system.cpu.predictedTakenIncorrect                186                       # Number of branches that were predicted taken incorrectly (Count)
system.cpu.predictedNotTakenIncorrect            1210                       # Number of branches that were predicted not taken incorrectly (Count)
system.cpu.branchMispredicts                     1396                       # Number of branch mispredicts detected at execute (Count)
system.cpu.numInsts                             67913                       # Number of executed instructions (Count)
system.cpu.numLoadInsts                          8839                       # Number of load instructions executed (Count)
system.cpu.numSquashedInsts                      2056                       # Number of squashed instructions skipped in execute (Count)
system.cpu.numSwp                                   0                       # Number of swp insts executed (Count)
system.cpu.numNop                                   0                       # Number of nop insts executed (Count)
system.cpu.numRefs                              15462                       # Number of memory reference insts executed (Count)
system.cpu.numBranches                           7728                       # Number of branches executed (Count)
system.cpu.numStoreInsts                         6623                       # Number of stores executed (Count)
system.cpu.numRate                           0.599446                       # Inst execution rate ((Count/Cycle))
system.cpu.instsToCommit                        67253                       # Cumulative count of insts sent to commit (Count)
system.cpu.writebackCount                       66593                       # Cumulative count of insts written-back (Count)
system.cpu.producerInst                         47069                       # Number of instructions producing a value (Count)
system.cpu.consumerInst                         75223                       # Number of instructions consuming a value (Count)
system.cpu.wbRate                            0.587794                       # Insts written-back per cycle ((Count/Cycle))
system.cpu.wbFanout                          0.625726                       # Average fanout of values written-back ((Count/Count))
system.cpu.timesIdled                             450                       # Number of times that the entire CPU went into an idle state and unscheduled itself (Count)
system.cpu.idleCycles                           56274                       # Total number of cycles that the CPU has spent unscheduled due to idling (Cycle)
system.cpu.committedInsts                       22877                       # Number of Instructions Simulated (Count)
system.cpu.committedOps                         47474                       # Number of Ops (including micro ops) Simulated (Count)
system.cpu.cpi                               4.952266                       # CPI: Cycles Per Instruction ((Cycle/Count))
system.cpu.totalCpi                          4.952266                       # CPI: Total CPI of All Threads ((Cycle/Count))
system.cpu.ipc                               0.201928                       # IPC: Instructions Per Cycle ((Count/Cycle))
system.cpu.totalIpc                          0.201928                       # IPC: Total IPC of All Threads ((Count/Cycle))
system.cpu.intRegfileReads                      90732                       # Number of integer regfile reads (Count)
system.cpu.intRegfileWrites                     52467                       # Number of integer regfile writes (Count)
system.cpu.fpRegfileReads                          15                       # Number of floating regfile reads (Count)
system.cpu.fpRegfileWrites                          9                       # Number of floating regfile writes (Count)
system.cpu.ccRegfileReads                       37193                       # number of cc regfile reads (Count)
system.cpu.ccRegfileWrites                      21874                       # number of cc regfile writes (Count)
system.cpu.miscRegfileReads                     30320                       # number of misc regfile reads (Count)
system.cpu.miscRegfileWrites                       14                       # number of misc regfile writes (Count)
system.cpu.MemDepUnit__0.insertedLoads          10583                       # Number of loads inserted to the mem dependence unit. (Count)
system.cpu.MemDepUnit__0.insertedStores          8154                       # Number of stores inserted to the mem dependence unit. (Count)
system.cpu.MemDepUnit__0.conflictingLoads          679                       # Number of conflicting loads. (Count)
system.cpu.MemDepUnit__0.conflictingStores          609                       # Number of conflicting stores. (Count)
system.cpu.MemDepUnit__1.insertedLoads              0                       # Number of loads inserted to the mem dependence unit. (Count)
system.cpu.MemDepUnit__1.insertedStores             0                       # Number of stores inserted to the mem dependence unit. (Count)
system.cpu.MemDepUnit__1.conflictingLoads            0                       # Number of conflicting loads. (Count)
system.cpu.MemDepUnit__1.conflictingStores            0                       # Number of conflicting stores. (Count)
system.cpu.MemDepUnit__2.insertedLoads              0                       # Number of loads inserted to the mem dependence unit. (Count)
system.cpu.MemDepUnit__2.insertedStores             0                       # Number of stores inserted to the mem dependence unit. (Count)
system.cpu.MemDepUnit__2.conflictingLoads            0                       # Number of conflicting loads. (Count)
system.cpu.MemDepUnit__2.conflictingStores            0                       # Number of conflicting stores. (Count)
system.cpu.MemDepUnit__3.insertedLoads              0                       # Number of loads inserted to the mem dependence unit. (Count)
system.cpu.MemDepUnit__3.insertedStores             0                       # Number of stores inserted to the mem dependence unit. (Count)
system.cpu.MemDepUnit__3.conflictingLoads            0                       # Number of conflicting loads. (Count)
system.cpu.MemDepUnit__3.conflictingStores            0                       # Number of conflicting stores. (Count)
system.cpu.branchPred.lookups                   12887                       # Number of BP lookups (Count)
system.cpu.branchPred.condPredicted              9595                       # Number of conditional branches predicted (Count)
system.cpu.branchPred.condIncorrect              1502                       # Number of conditional branches incorrect (Count)
system.cpu.branchPred.BTBLookups                 5750                       # Number of BTB lookups (Count)
system.cpu.branchPred.BTBHits                    4377                       # Number of BTB hits (Count)
system.cpu.branchPred.BTBHitRatio            0.761217                       # BTB Hit Ratio (Ratio)
system.cpu.branchPred.RASUsed                    1008                       # Number of times the RAS was used to get a target. (Count)
system.cpu.branchPred.RASIncorrect                 24                       # Number of incorrect RAS predictions. (Count)
system.cpu.branchPred.indirectLookups             544                       # Number of indirect predictor lookups. (Count)
system.cpu.branchPred.indirectHits                 18                       # Number of indirect target hits. (Count)
system.cpu.branchPred.indirectMisses              526                       # Number of indirect misses. (Count)
system.cpu.branchPred.indirectMispredicted          126                       # Number of mispredicted indirect branches. (Count)
system.cpu.branchPred.perceptron.lookups            0                       # Number of BP lookups (Count)
system.cpu.branchPred.perceptron.condPredicted            0                       # Number of conditional branches predicted (Count)
system.cpu.branchPred.perceptron.condIncorrect            0                       # Number of conditional branches incorrect (Count)
system.cpu.branchPred.perceptron.BTBLookups            0                       # Number of BTB lookups (Count)
system.cpu.branchPred.perceptron.BTBHits            0                       # Number of BTB hits (Count)
system.cpu.branchPred.perceptron.BTBHitRatio          nan                       # BTB Hit Ratio (Ratio)
system.cpu.branchPred.perceptron.RASUsed            0                       # Number of times the RAS was used to get a target. (Count)
system.cpu.branchPred.perceptron.RASIncorrect            0                       # Number of incorrect RAS predictions. (Count)
system.cpu.branchPred.perceptron.indirectLookups            0                       # Number of indirect predictor lookups. (Count)
system.cpu.branchPred.perceptron.indirectHits            0                       # Number of indirect target hits. (Count)
system.cpu.branchPred.perceptron.indirectMisses            0                       # Number of indirect misses. (Count)
system.cpu.branchPred.perceptron.indirectMispredicted            0                       # Number of mispredicted indirect branches. (Count)
system.cpu.branchPred.tage.lookups                  0                       # Number of BP lookups (Count)
system.cpu.branchPred.tage.condPredicted            0                       # Number of conditional branches predicted (Count)
system.cpu.branchPred.tage.condIncorrect            0                       # Number of conditional branches incorrect (Count)
system.cpu.branchPred.tage.BTBLookups               0                       # Number of BTB lookups (Count)
system.cpu.branchPred.tage.BTBHits                  0                       # Number of BTB hits (Count)
system.cpu.branchPred.tage.BTBHitRatio            nan                       # BTB Hit Ratio (Ratio)
system.cpu.branchPred.tage.RASUsed                  0                       # Number of times the RAS was used to get a target. (Count)
system.cpu.branchPred.tage.RASIncorrect             0                       # Number of incorrect RAS predictions. (Count)
system.cpu.branchPred.tage.indirectLookups            0                       # Number of indirect predictor lookups. (Count)
system.cpu.branchPred.tage.indirectHits             0                       # Number of indirect target hits. (Count)
system.cpu.branchPred.tage.indirectMisses            0                       # Number of indirect misses. (Count)
system.cpu.branchPred.tage.indirectMispredicted            0                       # Number of mispredicted indirect branches. (Count)
system.cpu.branchPred.tage.tage.longestMatchProviderCorrect          872                       # Number of times TAGE Longest Match is the provider and the prediction is correct (Count)
system.cpu.branchPred.tage.tage.altMatchProviderCorrect           79                       # Number of times TAGE Alt Match is the provider and the prediction is correct (Count)
system.cpu.branchPred.tage.tage.bimodalAltMatchProviderCorrect          142                       # Number of times TAGE Alt Match is the bimodal and it is the provider and the prediction is correct (Count)
system.cpu.branchPred.tage.tage.bimodalProviderCorrect         2917                       # Number of times there are no hits on the TAGE tables and the bimodal prediction is correct (Count)
system.cpu.branchPred.tage.tage.longestMatchProviderWrong          109                       # Number of times TAGE Longest Match is the provider and the prediction is wrong (Count)
system.cpu.branchPred.tage.tage.altMatchProviderWrong            7                       # Number of times TAGE Alt Match is the provider and the prediction is wrong (Count)
system.cpu.branchPred.tage.tage.bimodalAltMatchProviderWrong           50                       # Number of times TAGE Alt Match is the bimodal and it is the provider and the prediction is wrong (Count)
system.cpu.branchPred.tage.tage.bimodalProviderWrong          621                       # Number of times there are no hits on the TAGE tables and the bimodal prediction is wrong (Count)
system.cpu.branchPred.tage.tage.altMatchProviderWouldHaveHit           57                       # Number of times TAGE Longest Match is the provider, the prediction is wrong and Alt Match prediction was correct (Count)
system.cpu.branchPred.tage.tage.longestMatchProviderWouldHaveHit           46                       # Number of times TAGE Alt Match is the provider, the prediction is wrong and Longest Match prediction was correct (Count)
system.cpu.branchPred.tage.tage.longestMatchProvider::0            0                       # TAGE provider for longest match (Count)
system.cpu.branchPred.tage.tage.longestMatchProvider::1          294                       # TAGE provider for longest match (Count)
system.cpu.branchPred.tage.tage.longestMatchProvider::2          277                       # TAGE provider for longest match (Count)
system.cpu.branchPred.tage.tage.longestMatchProvider::3          291                       # TAGE provider for longest match (Count)
system.cpu.branchPred.tage.tage.longestMatchProvider::4          146                       # TAGE provider for longest match (Count)
system.cpu.branchPred.tage.tage.longestMatchProvider::5           57                       # TAGE provider for longest match (Count)
system.cpu.branchPred.tage.tage.longestMatchProvider::6            1                       # TAGE provider for longest match (Count)
system.cpu.branchPred.tage.tage.longestMatchProvider::7            1                       # TAGE provider for longest match (Count)
system.cpu.branchPred.tage.tage.longestMatchProvider::8            0                       # TAGE provider for longest match (Count)
system.cpu.branchPred.tage.tage.longestMatchProvider::9            0                       # TAGE provider for longest match (Count)
system.cpu.branchPred.tage.tage.longestMatchProvider::10            0                       # TAGE provider for longest match (Count)
system.cpu.branchPred.tage.tage.longestMatchProvider::11            0                       # TAGE provider for longest match (Count)
system.cpu.branchPred.tage.tage.longestMatchProvider::12            0                       # TAGE provider for longest match (Count)
system.cpu.branchPred.tage.tage.altMatchProvider::0          653                       # TAGE provider for alt match (Count)
system.cpu.branchPred.tage.tage.altMatchProvider::1          133                       # TAGE provider for alt match (Count)
system.cpu.branchPred.tage.tage.altMatchProvider::2          151                       # TAGE provider for alt match (Count)
system.cpu.branchPred.tage.tage.altMatchProvider::3          129                       # TAGE provider for alt match (Count)
system.cpu.branchPred.tage.tage.altMatchProvider::4            1                       # TAGE provider for alt match (Count)
system.cpu.branchPred.tage.tage.altMatchProvider::5            0                       # TAGE provider for alt match (Count)
system.cpu.branchPred.tage.tage.altMatchProvider::6            0                       # TAGE provider for alt match (Count)
system.cpu.branchPred.tage.tage.altMatchProvider::7            0                       # TAGE provider for alt match (Count)
system.cpu.branchPred.tage.tage.altMatchProvider::8            0                       # TAGE provider for alt match (Count)
system.cpu.branchPred.tage.tage.altMatchProvider::9            0                       # TAGE provider for alt match (Count)
system.cpu.branchPred.tage.tage.altMatchProvider::10            0                       # TAGE provider for alt match (Count)
system.cpu.branchPred.tage.tage.altMatchProvider::11            0                       # TAGE provider for alt match (Count)
system.cpu.branchPred.tage.tage.altMatchProvider::12            0                       # TAGE provider for alt match (Count)
system.cpu.commit.commitSquashedInsts           32522                       # The number of squashed insts skipped by commit (Count)
system.cpu.commit.commitNonSpecStalls              40                       # The number of times commit has been forced to stall to communicate backwards (Count)
system.cpu.commit.branchMispredicts              1107                       # The number of times a branch was mispredicted (Count)
system.cpu.commit.numCommittedDist::samples        52059                       # Number of insts commited each cycle (Count)
system.cpu.commit.numCommittedDist::mean     0.911927                       # Number of insts commited each cycle (Count)
system.cpu.commit.numCommittedDist::stdev     1.970396                       # Number of insts commited each cycle (Count)
system.cpu.commit.numCommittedDist::underflows            0      0.00%      0.00% # Number of insts commited each cycle (Count)
system.cpu.commit.numCommittedDist::0           38642     74.23%     74.23% # Number of insts commited each cycle (Count)
system.cpu.commit.numCommittedDist::1            3310      6.36%     80.59% # Number of insts commited each cycle (Count)
system.cpu.commit.numCommittedDist::2            1957      3.76%     84.34% # Number of insts commited each cycle (Count)
system.cpu.commit.numCommittedDist::3            3311      6.36%     90.70% # Number of insts commited each cycle (Count)
system.cpu.commit.numCommittedDist::4            1366      2.62%     93.33% # Number of insts commited each cycle (Count)
system.cpu.commit.numCommittedDist::5             570      1.09%     94.42% # Number of insts commited each cycle (Count)
system.cpu.commit.numCommittedDist::6             443      0.85%     95.27% # Number of insts commited each cycle (Count)
system.cpu.commit.numCommittedDist::7             335      0.64%     95.92% # Number of insts commited each cycle (Count)
system.cpu.commit.numCommittedDist::8            2125      4.08%    100.00% # Number of insts commited each cycle (Count)
system.cpu.commit.numCommittedDist::overflows            0      0.00%    100.00% # Number of insts commited each cycle (Count)
system.cpu.commit.numCommittedDist::min_value            0                       # Number of insts commited each cycle (Count)
system.cpu.commit.numCommittedDist::max_value            8                       # Number of insts commited each cycle (Count)
system.cpu.commit.numCommittedDist::total        52059                       # Number of insts commited each cycle (Count)
system.cpu.commit.instsCommitted                22877                       # Number of instructions committed (Count)
system.cpu.commit.opsCommitted                  47474                       # Number of ops (including micro ops) committed (Count)
system.cpu.commit.memRefs                       11137                       # Number of memory references committed (Count)
system.cpu.commit.loads                          5984                       # Number of loads committed (Count)
system.cpu.commit.amos                              0                       # Number of atomic instructions committed (Count)
system.cpu.commit.membars                          20                       # Number of memory barriers committed (Count)
system.cpu.commit.branches                       6124                       # Number of branches committed (Count)
system.cpu.commit.vectorInstructions                0                       # Number of committed Vector instructions. (Count)
system.cpu.commit.floating                         12                       # Number of committed floating point instructions. (Count)
system.cpu.commit.integer                       46601                       # Number of committed integer instructions. (Count)
system.cpu.commit.functionCalls                   500                       # Number of function calls committed. (Count)
system.cpu.commit.committedInstType_0::No_OpClass           35      0.07%      0.07% # Class of committed instruction (Count)
system.cpu.commit.committedInstType_0::IntAlu        36243     76.34%     76.42% # Class of committed instruction (Count)
system.cpu.commit.committedInstType_0::IntMult           24      0.05%     76.47% # Class of committed instruction (Count)
system.cpu.commit.committedInstType_0::IntDiv           35      0.07%     76.54% # Class of committed instruction (Count)
system.cpu.commit.committedInstType_0::FloatAdd            0      0.00%     76.54% # Class of committed instruction (Count)
system.cpu.commit.committedInstType_0::FloatCmp            0      0.00%     76.54% # Class of committed instruction (Count)
system.cpu.commit.committedInstType_0::FloatCvt            0      0.00%     76.54% # Class of committed instruction (Count)
system.cpu.commit.committedInstType_0::FloatMult            0      0.00%     76.54% # Class of committed instruction (Count)
system.cpu.commit.committedInstType_0::FloatMultAcc            0      0.00%     76.54% # Class of committed instruction (Count)
system.cpu.commit.committedInstType_0::FloatDiv            0      0.00%     76.54% # Class of committed instruction (Count)
system.cpu.commit.committedInstType_0::FloatMisc            0      0.00%     76.54% # Class of committed instruction (Count)
system.cpu.commit.committedInstType_0::FloatSqrt            0      0.00%     76.54% # Class of committed instruction (Count)
system.cpu.commit.committedInstType_0::SimdAdd            0      0.00%     76.54% # Class of committed instruction (Count)
system.cpu.commit.committedInstType_0::SimdAddAcc            0      0.00%     76.54% # Class of committed instruction (Count)
system.cpu.commit.committedInstType_0::SimdAlu            0      0.00%     76.54% # Class of committed instruction (Count)
system.cpu.commit.committedInstType_0::SimdCmp            0      0.00%     76.54% # Class of committed instruction (Count)
system.cpu.commit.committedInstType_0::SimdCvt            0      0.00%     76.54% # Class of committed instruction (Count)
system.cpu.commit.committedInstType_0::SimdMisc            0      0.00%     76.54% # Class of committed instruction (Count)
system.cpu.commit.committedInstType_0::SimdMult            0      0.00%     76.54% # Class of committed instruction (Count)
system.cpu.commit.committedInstType_0::SimdMultAcc            0      0.00%     76.54% # Class of committed instruction (Count)
system.cpu.commit.committedInstType_0::SimdShift            0      0.00%     76.54% # Class of committed instruction (Count)
system.cpu.commit.committedInstType_0::SimdShiftAcc            0      0.00%     76.54% # Class of committed instruction (Count)
system.cpu.commit.committedInstType_0::SimdDiv            0      0.00%     76.54% # Class of committed instruction (Count)
system.cpu.commit.committedInstType_0::SimdSqrt            0      0.00%     76.54% # Class of committed instruction (Count)
system.cpu.commit.committedInstType_0::SimdFloatAdd            0      0.00%     76.54% # Class of committed instruction (Count)
system.cpu.commit.committedInstType_0::SimdFloatAlu            0      0.00%     76.54% # Class of committed instruction (Count)
system.cpu.commit.committedInstType_0::SimdFloatCmp            0      0.00%     76.54% # Class of committed instruction (Count)
system.cpu.commit.committedInstType_0::SimdFloatCvt            0      0.00%     76.54% # Class of committed instruction (Count)
system.cpu.commit.committedInstType_0::SimdFloatDiv            0      0.00%     76.54% # Class of committed instruction (Count)
system.cpu.commit.committedInstType_0::SimdFloatMisc            0      0.00%     76.54% # Class of committed instruction (Count)
system.cpu.commit.committedInstType_0::SimdFloatMult            0      0.00%     76.54% # Class of committed instruction (Count)
system.cpu.commit.committedInstType_0::SimdFloatMultAcc            0      0.00%     76.54% # Class of committed instruction (Count)
system.cpu.commit.committedInstType_0::SimdFloatSqrt            0      0.00%     76.54% # Class of committed instruction (Count)
system.cpu.commit.committedInstType_0::SimdReduceAdd            0      0.00%     76.54% # Class of committed instruction (Count)
system.cpu.commit.committedInstType_0::SimdReduceAlu            0      0.00%     76.54% # Class of committed instruction (Count)
system.cpu.commit.committedInstType_0::SimdReduceCmp            0      0.00%     76.54% # Class of committed instruction (Count)
system.cpu.commit.committedInstType_0::SimdFloatReduceAdd            0      0.00%     76.54% # Class of committed instruction (Count)
system.cpu.commit.committedInstType_0::SimdFloatReduceCmp            0      0.00%     76.54% # Class of committed instruction (Count)
system.cpu.commit.committedInstType_0::SimdAes            0      0.00%     76.54% # Class of committed instruction (Count)
system.cpu.commit.committedInstType_0::SimdAesMix            0      0.00%     76.54% # Class of committed instruction (Count)
system.cpu.commit.committedInstType_0::SimdSha1Hash            0      0.00%     76.54% # Class of committed instruction (Count)
system.cpu.commit.committedInstType_0::SimdSha1Hash2            0      0.00%     76.54% # Class of committed instruction (Count)
system.cpu.commit.committedInstType_0::SimdSha256Hash            0      0.00%     76.54% # Class of committed instruction (Count)
system.cpu.commit.committedInstType_0::SimdSha256Hash2            0      0.00%     76.54% # Class of committed instruction (Count)
system.cpu.commit.committedInstType_0::SimdShaSigma2            0      0.00%     76.54% # Class of committed instruction (Count)
system.cpu.commit.committedInstType_0::SimdShaSigma3            0      0.00%     76.54% # Class of committed instruction (Count)
system.cpu.commit.committedInstType_0::SimdPredAlu            0      0.00%     76.54% # Class of committed instruction (Count)
system.cpu.commit.committedInstType_0::MemRead         5981     12.60%     89.14% # Class of committed instruction (Count)
system.cpu.commit.committedInstType_0::MemWrite         5150     10.85%     99.99% # Class of committed instruction (Count)
system.cpu.commit.committedInstType_0::FloatMemRead            3      0.01%     99.99% # Class of committed instruction (Count)
system.cpu.commit.committedInstType_0::FloatMemWrite            3      0.01%    100.00% # Class of committed instruction (Count)
system.cpu.commit.committedInstType_0::IprAccess            0      0.00%    100.00% # Class of committed instruction (Count)
system.cpu.commit.committedInstType_0::InstPrefetch            0      0.00%    100.00% # Class of committed instruction (Count)
system.cpu.commit.committedInstType_0::total        47474                       # Class of committed instruction (Count)
system.cpu.commit.commitEligibleSamples          2125                       # number cycles where commit BW limit reached (Cycle)
system.cpu.dcache.demandHits::cpu.data          12096                       # number of demand (read+write) hits (Count)
system.cpu.dcache.demandHits::total             12096                       # number of demand (read+write) hits (Count)
system.cpu.dcache.overallHits::cpu.data         12096                       # number of overall hits (Count)
system.cpu.dcache.overallHits::total            12096                       # number of overall hits (Count)
system.cpu.dcache.demandMisses::cpu.data          414                       # number of demand (read+write) misses (Count)
system.cpu.dcache.demandMisses::total             414                       # number of demand (read+write) misses (Count)
system.cpu.dcache.overallMisses::cpu.data          414                       # number of overall misses (Count)
system.cpu.dcache.overallMisses::total            414                       # number of overall misses (Count)
system.cpu.dcache.demandMissLatency::cpu.data     32260999                       # number of demand (read+write) miss ticks (Tick)
system.cpu.dcache.demandMissLatency::total     32260999                       # number of demand (read+write) miss ticks (Tick)
system.cpu.dcache.overallMissLatency::cpu.data     32260999                       # number of overall miss ticks (Tick)
system.cpu.dcache.overallMissLatency::total     32260999                       # number of overall miss ticks (Tick)
system.cpu.dcache.demandAccesses::cpu.data        12510                       # number of demand (read+write) accesses (Count)
system.cpu.dcache.demandAccesses::total         12510                       # number of demand (read+write) accesses (Count)
system.cpu.dcache.overallAccesses::cpu.data        12510                       # number of overall (read+write) accesses (Count)
system.cpu.dcache.overallAccesses::total        12510                       # number of overall (read+write) accesses (Count)
system.cpu.dcache.demandMissRate::cpu.data     0.033094                       # miss rate for demand accesses (Ratio)
system.cpu.dcache.demandMissRate::total      0.033094                       # miss rate for demand accesses (Ratio)
system.cpu.dcache.overallMissRate::cpu.data     0.033094                       # miss rate for overall accesses (Ratio)
system.cpu.dcache.overallMissRate::total     0.033094                       # miss rate for overall accesses (Ratio)
system.cpu.dcache.demandAvgMissLatency::cpu.data 77925.118357                       # average overall miss latency ((Cycle/Count))
system.cpu.dcache.demandAvgMissLatency::total 77925.118357                       # average overall miss latency ((Cycle/Count))
system.cpu.dcache.overallAvgMissLatency::cpu.data 77925.118357                       # average overall miss latency ((Cycle/Count))
system.cpu.dcache.overallAvgMissLatency::total 77925.118357                       # average overall miss latency ((Cycle/Count))
system.cpu.dcache.blockedCycles::no_mshrs          506                       # number of cycles access was blocked (Cycle)
system.cpu.dcache.blockedCycles::no_targets            0                       # number of cycles access was blocked (Cycle)
system.cpu.dcache.blockedCauses::no_mshrs           10                       # number of times access was blocked (Count)
system.cpu.dcache.blockedCauses::no_targets            0                       # number of times access was blocked (Count)
system.cpu.dcache.avgBlocked::no_mshrs      50.600000                       # average number of cycles each access was blocked ((Cycle/Count))
system.cpu.dcache.avgBlocked::no_targets          nan                       # average number of cycles each access was blocked ((Cycle/Count))
system.cpu.dcache.demandMshrHits::cpu.data          185                       # number of demand (read+write) MSHR hits (Count)
system.cpu.dcache.demandMshrHits::total           185                       # number of demand (read+write) MSHR hits (Count)
system.cpu.dcache.overallMshrHits::cpu.data          185                       # number of overall MSHR hits (Count)
system.cpu.dcache.overallMshrHits::total          185                       # number of overall MSHR hits (Count)
system.cpu.dcache.demandMshrMisses::cpu.data          229                       # number of demand (read+write) MSHR misses (Count)
system.cpu.dcache.demandMshrMisses::total          229                       # number of demand (read+write) MSHR misses (Count)
system.cpu.dcache.overallMshrMisses::cpu.data          229                       # number of overall MSHR misses (Count)
system.cpu.dcache.overallMshrMisses::total          229                       # number of overall MSHR misses (Count)
system.cpu.dcache.demandMshrMissLatency::cpu.data     19232499                       # number of demand (read+write) MSHR miss ticks (Tick)
system.cpu.dcache.demandMshrMissLatency::total     19232499                       # number of demand (read+write) MSHR miss ticks (Tick)
system.cpu.dcache.overallMshrMissLatency::cpu.data     19232499                       # number of overall MSHR miss ticks (Tick)
system.cpu.dcache.overallMshrMissLatency::total     19232499                       # number of overall MSHR miss ticks (Tick)
system.cpu.dcache.demandMshrMissRate::cpu.data     0.018305                       # mshr miss ratio for demand accesses (Ratio)
system.cpu.dcache.demandMshrMissRate::total     0.018305                       # mshr miss ratio for demand accesses (Ratio)
system.cpu.dcache.overallMshrMissRate::cpu.data     0.018305                       # mshr miss ratio for overall accesses (Ratio)
system.cpu.dcache.overallMshrMissRate::total     0.018305                       # mshr miss ratio for overall accesses (Ratio)
system.cpu.dcache.demandAvgMshrMissLatency::cpu.data 83984.711790                       # average overall mshr miss latency ((Cycle/Count))
system.cpu.dcache.demandAvgMshrMissLatency::total 83984.711790                       # average overall mshr miss latency ((Cycle/Count))
system.cpu.dcache.overallAvgMshrMissLatency::cpu.data 83984.711790                       # average overall mshr miss latency ((Cycle/Count))
system.cpu.dcache.overallAvgMshrMissLatency::total 83984.711790                       # average overall mshr miss latency ((Cycle/Count))
system.cpu.dcache.replacements                      2                       # number of replacements (Count)
system.cpu.dcache.ReadReq.hits::cpu.data         7060                       # number of ReadReq hits (Count)
system.cpu.dcache.ReadReq.hits::total            7060                       # number of ReadReq hits (Count)
system.cpu.dcache.ReadReq.misses::cpu.data          295                       # number of ReadReq misses (Count)
system.cpu.dcache.ReadReq.misses::total           295                       # number of ReadReq misses (Count)
system.cpu.dcache.ReadReq.missLatency::cpu.data     22595500                       # number of ReadReq miss ticks (Tick)
system.cpu.dcache.ReadReq.missLatency::total     22595500                       # number of ReadReq miss ticks (Tick)
system.cpu.dcache.ReadReq.accesses::cpu.data         7355                       # number of ReadReq accesses(hits+misses) (Count)
system.cpu.dcache.ReadReq.accesses::total         7355                       # number of ReadReq accesses(hits+misses) (Count)
system.cpu.dcache.ReadReq.missRate::cpu.data     0.040109                       # miss rate for ReadReq accesses (Ratio)
system.cpu.dcache.ReadReq.missRate::total     0.040109                       # miss rate for ReadReq accesses (Ratio)
system.cpu.dcache.ReadReq.avgMissLatency::cpu.data 76594.915254                       # average ReadReq miss latency ((Tick/Count))
system.cpu.dcache.ReadReq.avgMissLatency::total 76594.915254                       # average ReadReq miss latency ((Tick/Count))
system.cpu.dcache.ReadReq.mshrHits::cpu.data          184                       # number of ReadReq MSHR hits (Count)
system.cpu.dcache.ReadReq.mshrHits::total          184                       # number of ReadReq MSHR hits (Count)
system.cpu.dcache.ReadReq.mshrMisses::cpu.data          111                       # number of ReadReq MSHR misses (Count)
system.cpu.dcache.ReadReq.mshrMisses::total          111                       # number of ReadReq MSHR misses (Count)
system.cpu.dcache.ReadReq.mshrMissLatency::cpu.data      9748000                       # number of ReadReq MSHR miss ticks (Tick)
system.cpu.dcache.ReadReq.mshrMissLatency::total      9748000                       # number of ReadReq MSHR miss ticks (Tick)
system.cpu.dcache.ReadReq.mshrMissRate::cpu.data     0.015092                       # mshr miss rate for ReadReq accesses (Ratio)
system.cpu.dcache.ReadReq.mshrMissRate::total     0.015092                       # mshr miss rate for ReadReq accesses (Ratio)
system.cpu.dcache.ReadReq.avgMshrMissLatency::cpu.data 87819.819820                       # average ReadReq mshr miss latency ((Tick/Count))
system.cpu.dcache.ReadReq.avgMshrMissLatency::total 87819.819820                       # average ReadReq mshr miss latency ((Tick/Count))
system.cpu.dcache.WriteReq.hits::cpu.data         5036                       # number of WriteReq hits (Count)
system.cpu.dcache.WriteReq.hits::total           5036                       # number of WriteReq hits (Count)
system.cpu.dcache.WriteReq.misses::cpu.data          119                       # number of WriteReq misses (Count)
system.cpu.dcache.WriteReq.misses::total          119                       # number of WriteReq misses (Count)
system.cpu.dcache.WriteReq.missLatency::cpu.data      9665499                       # number of WriteReq miss ticks (Tick)
system.cpu.dcache.WriteReq.missLatency::total      9665499                       # number of WriteReq miss ticks (Tick)
system.cpu.dcache.WriteReq.accesses::cpu.data         5155                       # number of WriteReq accesses(hits+misses) (Count)
system.cpu.dcache.WriteReq.accesses::total         5155                       # number of WriteReq accesses(hits+misses) (Count)
system.cpu.dcache.WriteReq.missRate::cpu.data     0.023084                       # miss rate for WriteReq accesses (Ratio)
system.cpu.dcache.WriteReq.missRate::total     0.023084                       # miss rate for WriteReq accesses (Ratio)
system.cpu.dcache.WriteReq.avgMissLatency::cpu.data 81222.680672                       # average WriteReq miss latency ((Tick/Count))
system.cpu.dcache.WriteReq.avgMissLatency::total 81222.680672                       # average WriteReq miss latency ((Tick/Count))
system.cpu.dcache.WriteReq.mshrHits::cpu.data            1                       # number of WriteReq MSHR hits (Count)
system.cpu.dcache.WriteReq.mshrHits::total            1                       # number of WriteReq MSHR hits (Count)
system.cpu.dcache.WriteReq.mshrMisses::cpu.data          118                       # number of WriteReq MSHR misses (Count)
system.cpu.dcache.WriteReq.mshrMisses::total          118                       # number of WriteReq MSHR misses (Count)
system.cpu.dcache.WriteReq.mshrMissLatency::cpu.data      9484499                       # number of WriteReq MSHR miss ticks (Tick)
system.cpu.dcache.WriteReq.mshrMissLatency::total      9484499                       # number of WriteReq MSHR miss ticks (Tick)
system.cpu.dcache.WriteReq.mshrMissRate::cpu.data     0.022890                       # mshr miss rate for WriteReq accesses (Ratio)
system.cpu.dcache.WriteReq.mshrMissRate::total     0.022890                       # mshr miss rate for WriteReq accesses (Ratio)
system.cpu.dcache.WriteReq.avgMshrMissLatency::cpu.data 80377.110169                       # average WriteReq mshr miss latency ((Tick/Count))
system.cpu.dcache.WriteReq.avgMshrMissLatency::total 80377.110169                       # average WriteReq mshr miss latency ((Tick/Count))
system.cpu.dcache.power_state.pwrStateResidencyTicks::UNDEFINED     56646000                       # Cumulative time (in ticks) in various power states (Tick)
system.cpu.dcache.tags.tagsInUse           134.773004                       # Average ticks per tags in use ((Tick/Count))
system.cpu.dcache.tags.totalRefs                12325                       # Total number of references to valid blocks. (Count)
system.cpu.dcache.tags.sampledRefs                225                       # Sample count of references to valid blocks. (Count)
system.cpu.dcache.tags.avgRefs              54.777778                       # Average number of references to valid blocks. ((Count/Count))
system.cpu.dcache.tags.warmupTick              176500                       # The tick when the warmup percentage was hit. (Tick)
system.cpu.dcache.tags.occupancies::cpu.data   134.773004                       # Average occupied blocks per tick, per requestor ((Count/Tick))
system.cpu.dcache.tags.avgOccs::cpu.data     0.263229                       # Average percentage of cache occupancy ((Ratio/Tick))
system.cpu.dcache.tags.avgOccs::total        0.263229                       # Average percentage of cache occupancy ((Ratio/Tick))
system.cpu.dcache.tags.occupanciesTaskId::1024          223                       # Occupied blocks per task id (Count)
system.cpu.dcache.tags.ageTaskId_1024::0           16                       # Occupied blocks per task id, per block age (Count)
system.cpu.dcache.tags.ageTaskId_1024::1          207                       # Occupied blocks per task id, per block age (Count)
system.cpu.dcache.tags.ratioOccsTaskId::1024     0.435547                       # Ratio of occupied blocks and all blocks, per task id (Ratio)
system.cpu.dcache.tags.tagAccesses              50265                       # Number of tag accesses (Count)
system.cpu.dcache.tags.dataAccesses             50265                       # Number of data accesses (Count)
system.cpu.dcache.tags.power_state.pwrStateResidencyTicks::UNDEFINED     56646000                       # Cumulative time (in ticks) in various power states (Tick)
system.cpu.decode.idleCycles                    25834                       # Number of cycles decode is idle (Cycle)
system.cpu.decode.blockedCycles                 16128                       # Number of cycles decode is blocked (Cycle)
system.cpu.decode.runCycles                     12611                       # Number of cycles decode is running (Cycle)
system.cpu.decode.unblockCycles                  1230                       # Number of cycles decode is unblocking (Cycle)
system.cpu.decode.squashCycles                   1216                       # Number of cycles decode is squashing (Cycle)
system.cpu.decode.branchResolved                 4426                       # Number of times decode resolved a branch (Count)
system.cpu.decode.branchMispred                   521                       # Number of times decode detected a branch misprediction (Count)
system.cpu.decode.decodedInsts                  89880                       # Number of instructions handled by decode (Count)
system.cpu.decode.squashedInsts                  2630                       # Number of squashed instructions handled by decode (Count)
system.cpu.dtb_walker_cache.blockedCycles::no_mshrs            0                       # number of cycles access was blocked (Cycle)
system.cpu.dtb_walker_cache.blockedCycles::no_targets            0                       # number of cycles access was blocked (Cycle)
system.cpu.dtb_walker_cache.blockedCauses::no_mshrs            0                       # number of times access was blocked (Count)
system.cpu.dtb_walker_cache.blockedCauses::no_targets            0                       # number of times access was blocked (Count)
system.cpu.dtb_walker_cache.avgBlocked::no_mshrs          nan                       # average number of cycles each access was blocked ((Cycle/Count))
system.cpu.dtb_walker_cache.avgBlocked::no_targets          nan                       # average number of cycles each access was blocked ((Cycle/Count))
system.cpu.dtb_walker_cache.replacements            0                       # number of replacements (Count)
system.cpu.dtb_walker_cache.power_state.pwrStateResidencyTicks::UNDEFINED     56646000                       # Cumulative time (in ticks) in various power states (Tick)
system.cpu.dtb_walker_cache.tags.tagsInUse            0                       # Average ticks per tags in use ((Tick/Count))
system.cpu.dtb_walker_cache.tags.totalRefs            0                       # Total number of references to valid blocks. (Count)
system.cpu.dtb_walker_cache.tags.sampledRefs            0                       # Sample count of references to valid blocks. (Count)
system.cpu.dtb_walker_cache.tags.avgRefs          nan                       # Average number of references to valid blocks. ((Count/Count))
system.cpu.dtb_walker_cache.tags.warmupTick            0                       # The tick when the warmup percentage was hit. (Tick)
system.cpu.dtb_walker_cache.tags.tagAccesses            0                       # Number of tag accesses (Count)
system.cpu.dtb_walker_cache.tags.dataAccesses            0                       # Number of data accesses (Count)
system.cpu.dtb_walker_cache.tags.power_state.pwrStateResidencyTicks::UNDEFINED     56646000                       # Cumulative time (in ticks) in various power states (Tick)
system.cpu.fetch.icacheStallCycles              26739                       # Number of cycles fetch is stalled on an Icache miss (Cycle)
system.cpu.fetch.insts                          49318                       # Number of instructions fetch has processed (Count)
system.cpu.fetch.branches                       12887                       # Number of branches that fetch encountered (Count)
system.cpu.fetch.predictedBranches               5403                       # Number of branches that fetch has predicted taken (Count)
system.cpu.fetch.cycles                         27237                       # Number of cycles fetch has run and was not squashing or blocked (Cycle)
system.cpu.fetch.squashCycles                    3436                       # Number of cycles fetch has spent squashing (Cycle)
system.cpu.fetch.miscStallCycles                  158                       # Number of cycles fetch has spent waiting on interrupts, or bad addresses, or out of MSHRs (Cycle)
system.cpu.fetch.pendingTrapStallCycles          1122                       # Number of stall cycles due to pending traps (Cycle)
system.cpu.fetch.pendingQuiesceStallCycles           25                       # Number of stall cycles due to pending quiesce instructions (Cycle)
system.cpu.fetch.icacheWaitRetryStallCycles           20                       # Number of stall cycles due to full MSHR (Cycle)
system.cpu.fetch.cacheLines                      6271                       # Number of cache lines fetched (Count)
system.cpu.fetch.icacheSquashes                   673                       # Number of outstanding Icache misses that were squashed (Count)
system.cpu.fetch.nisnDist::samples              57019                       # Number of instructions fetched each cycle (Total) (Count)
system.cpu.fetch.nisnDist::mean              1.770708                       # Number of instructions fetched each cycle (Total) (Count)
system.cpu.fetch.nisnDist::stdev             3.112763                       # Number of instructions fetched each cycle (Total) (Count)
system.cpu.fetch.nisnDist::underflows               0      0.00%      0.00% # Number of instructions fetched each cycle (Total) (Count)
system.cpu.fetch.nisnDist::0                    41366     72.55%     72.55% # Number of instructions fetched each cycle (Total) (Count)
system.cpu.fetch.nisnDist::1                      727      1.28%     73.82% # Number of instructions fetched each cycle (Total) (Count)
system.cpu.fetch.nisnDist::2                      766      1.34%     75.17% # Number of instructions fetched each cycle (Total) (Count)
system.cpu.fetch.nisnDist::3                     1023      1.79%     76.96% # Number of instructions fetched each cycle (Total) (Count)
system.cpu.fetch.nisnDist::4                      926      1.62%     78.58% # Number of instructions fetched each cycle (Total) (Count)
system.cpu.fetch.nisnDist::5                     1089      1.91%     80.49% # Number of instructions fetched each cycle (Total) (Count)
system.cpu.fetch.nisnDist::6                      865      1.52%     82.01% # Number of instructions fetched each cycle (Total) (Count)
system.cpu.fetch.nisnDist::7                      759      1.33%     83.34% # Number of instructions fetched each cycle (Total) (Count)
system.cpu.fetch.nisnDist::8                     9498     16.66%    100.00% # Number of instructions fetched each cycle (Total) (Count)
system.cpu.fetch.nisnDist::overflows                0      0.00%    100.00% # Number of instructions fetched each cycle (Total) (Count)
system.cpu.fetch.nisnDist::min_value                0                       # Number of instructions fetched each cycle (Total) (Count)
system.cpu.fetch.nisnDist::max_value                8                       # Number of instructions fetched each cycle (Total) (Count)
system.cpu.fetch.nisnDist::total                57019                       # Number of instructions fetched each cycle (Total) (Count)
system.cpu.fetch.branchRate                  0.113749                       # Number of branch fetches per cycle (Ratio)
system.cpu.fetch.rate                        0.435314                       # Number of inst fetches per cycle ((Count/Cycle))
system.cpu.icache.demandHits::cpu.inst           5316                       # number of demand (read+write) hits (Count)
system.cpu.icache.demandHits::total              5316                       # number of demand (read+write) hits (Count)
system.cpu.icache.overallHits::cpu.inst          5316                       # number of overall hits (Count)
system.cpu.icache.overallHits::total             5316                       # number of overall hits (Count)
system.cpu.icache.demandMisses::cpu.inst          954                       # number of demand (read+write) misses (Count)
system.cpu.icache.demandMisses::total             954                       # number of demand (read+write) misses (Count)
system.cpu.icache.overallMisses::cpu.inst          954                       # number of overall misses (Count)
system.cpu.icache.overallMisses::total            954                       # number of overall misses (Count)
system.cpu.icache.demandMissLatency::cpu.inst     70380500                       # number of demand (read+write) miss ticks (Tick)
system.cpu.icache.demandMissLatency::total     70380500                       # number of demand (read+write) miss ticks (Tick)
system.cpu.icache.overallMissLatency::cpu.inst     70380500                       # number of overall miss ticks (Tick)
system.cpu.icache.overallMissLatency::total     70380500                       # number of overall miss ticks (Tick)
system.cpu.icache.demandAccesses::cpu.inst         6270                       # number of demand (read+write) accesses (Count)
system.cpu.icache.demandAccesses::total          6270                       # number of demand (read+write) accesses (Count)
system.cpu.icache.overallAccesses::cpu.inst         6270                       # number of overall (read+write) accesses (Count)
system.cpu.icache.overallAccesses::total         6270                       # number of overall (read+write) accesses (Count)
system.cpu.icache.demandMissRate::cpu.inst     0.152153                       # miss rate for demand accesses (Ratio)
system.cpu.icache.demandMissRate::total      0.152153                       # miss rate for demand accesses (Ratio)
system.cpu.icache.overallMissRate::cpu.inst     0.152153                       # miss rate for overall accesses (Ratio)
system.cpu.icache.overallMissRate::total     0.152153                       # miss rate for overall accesses (Ratio)
system.cpu.icache.demandAvgMissLatency::cpu.inst 73774.109015                       # average overall miss latency ((Cycle/Count))
system.cpu.icache.demandAvgMissLatency::total 73774.109015                       # average overall miss latency ((Cycle/Count))
system.cpu.icache.overallAvgMissLatency::cpu.inst 73774.109015                       # average overall miss latency ((Cycle/Count))
system.cpu.icache.overallAvgMissLatency::total 73774.109015                       # average overall miss latency ((Cycle/Count))
system.cpu.icache.blockedCycles::no_mshrs          136                       # number of cycles access was blocked (Cycle)
system.cpu.icache.blockedCycles::no_targets            0                       # number of cycles access was blocked (Cycle)
system.cpu.icache.blockedCauses::no_mshrs            3                       # number of times access was blocked (Count)
system.cpu.icache.blockedCauses::no_targets            0                       # number of times access was blocked (Count)
system.cpu.icache.avgBlocked::no_mshrs      45.333333                       # average number of cycles each access was blocked ((Cycle/Count))
system.cpu.icache.avgBlocked::no_targets          nan                       # average number of cycles each access was blocked ((Cycle/Count))
system.cpu.icache.writebacks::writebacks          242                       # number of writebacks (Count)
system.cpu.icache.writebacks::total               242                       # number of writebacks (Count)
system.cpu.icache.demandMshrHits::cpu.inst          231                       # number of demand (read+write) MSHR hits (Count)
system.cpu.icache.demandMshrHits::total           231                       # number of demand (read+write) MSHR hits (Count)
system.cpu.icache.overallMshrHits::cpu.inst          231                       # number of overall MSHR hits (Count)
system.cpu.icache.overallMshrHits::total          231                       # number of overall MSHR hits (Count)
system.cpu.icache.demandMshrMisses::cpu.inst          723                       # number of demand (read+write) MSHR misses (Count)
system.cpu.icache.demandMshrMisses::total          723                       # number of demand (read+write) MSHR misses (Count)
system.cpu.icache.overallMshrMisses::cpu.inst          723                       # number of overall MSHR misses (Count)
system.cpu.icache.overallMshrMisses::total          723                       # number of overall MSHR misses (Count)
system.cpu.icache.demandMshrMissLatency::cpu.inst     56302000                       # number of demand (read+write) MSHR miss ticks (Tick)
system.cpu.icache.demandMshrMissLatency::total     56302000                       # number of demand (read+write) MSHR miss ticks (Tick)
system.cpu.icache.overallMshrMissLatency::cpu.inst     56302000                       # number of overall MSHR miss ticks (Tick)
system.cpu.icache.overallMshrMissLatency::total     56302000                       # number of overall MSHR miss ticks (Tick)
system.cpu.icache.demandMshrMissRate::cpu.inst     0.115311                       # mshr miss ratio for demand accesses (Ratio)
system.cpu.icache.demandMshrMissRate::total     0.115311                       # mshr miss ratio for demand accesses (Ratio)
system.cpu.icache.overallMshrMissRate::cpu.inst     0.115311                       # mshr miss ratio for overall accesses (Ratio)
system.cpu.icache.overallMshrMissRate::total     0.115311                       # mshr miss ratio for overall accesses (Ratio)
system.cpu.icache.demandAvgMshrMissLatency::cpu.inst 77872.752420                       # average overall mshr miss latency ((Cycle/Count))
system.cpu.icache.demandAvgMshrMissLatency::total 77872.752420                       # average overall mshr miss latency ((Cycle/Count))
system.cpu.icache.overallAvgMshrMissLatency::cpu.inst 77872.752420                       # average overall mshr miss latency ((Cycle/Count))
system.cpu.icache.overallAvgMshrMissLatency::total 77872.752420                       # average overall mshr miss latency ((Cycle/Count))
system.cpu.icache.replacements                    242                       # number of replacements (Count)
system.cpu.icache.ReadReq.hits::cpu.inst         5316                       # number of ReadReq hits (Count)
system.cpu.icache.ReadReq.hits::total            5316                       # number of ReadReq hits (Count)
system.cpu.icache.ReadReq.misses::cpu.inst          954                       # number of ReadReq misses (Count)
system.cpu.icache.ReadReq.misses::total           954                       # number of ReadReq misses (Count)
system.cpu.icache.ReadReq.missLatency::cpu.inst     70380500                       # number of ReadReq miss ticks (Tick)
system.cpu.icache.ReadReq.missLatency::total     70380500                       # number of ReadReq miss ticks (Tick)
system.cpu.icache.ReadReq.accesses::cpu.inst         6270                       # number of ReadReq accesses(hits+misses) (Count)
system.cpu.icache.ReadReq.accesses::total         6270                       # number of ReadReq accesses(hits+misses) (Count)
system.cpu.icache.ReadReq.missRate::cpu.inst     0.152153                       # miss rate for ReadReq accesses (Ratio)
system.cpu.icache.ReadReq.missRate::total     0.152153                       # miss rate for ReadReq accesses (Ratio)
system.cpu.icache.ReadReq.avgMissLatency::cpu.inst 73774.109015                       # average ReadReq miss latency ((Tick/Count))
system.cpu.icache.ReadReq.avgMissLatency::total 73774.109015                       # average ReadReq miss latency ((Tick/Count))
system.cpu.icache.ReadReq.mshrHits::cpu.inst          231                       # number of ReadReq MSHR hits (Count)
system.cpu.icache.ReadReq.mshrHits::total          231                       # number of ReadReq MSHR hits (Count)
system.cpu.icache.ReadReq.mshrMisses::cpu.inst          723                       # number of ReadReq MSHR misses (Count)
system.cpu.icache.ReadReq.mshrMisses::total          723                       # number of ReadReq MSHR misses (Count)
system.cpu.icache.ReadReq.mshrMissLatency::cpu.inst     56302000                       # number of ReadReq MSHR miss ticks (Tick)
system.cpu.icache.ReadReq.mshrMissLatency::total     56302000                       # number of ReadReq MSHR miss ticks (Tick)
[...]
system.mem_ctrls.dram.perBankWrBursts::11            0                       # Per bank write bursts (Count)
system.mem_ctrls.dram.perBankWrBursts::12            0                       # Per bank write bursts (Count)
system.mem_ctrls.dram.perBankWrBursts::13            0                       # Per bank write bursts (Count)
system.mem_ctrls.dram.perBankWrBursts::14            0                       # Per bank write bursts (Count)
system.mem_ctrls.dram.perBankWrBursts::15            0                       # Per bank write bursts (Count)
system.mem_ctrls.dram.totQLat                 9380250                       # Total ticks spent queuing (Tick)
system.mem_ctrls.dram.totBusLat               4610000                       # Total ticks spent in databus transfers (Tick)
system.mem_ctrls.dram.totMemAccLat           26667750                       # Total ticks spent from burst creation until serviced by the DRAM (Tick)
system.mem_ctrls.dram.avgQLat                10173.81                       # Average queueing delay per DRAM burst ((Tick/Count))
system.mem_ctrls.dram.avgBusLat               5000.00                       # Average bus latency per DRAM burst ((Tick/Count))
system.mem_ctrls.dram.avgMemAccLat           28923.81                       # Average memory access latency per DRAM burst ((Tick/Count))
system.mem_ctrls.dram.readRowHits                 682                       # Number of row buffer hits during reads (Count)
system.mem_ctrls.dram.writeRowHits                  0                       # Number of row buffer hits during writes (Count)
system.mem_ctrls.dram.readRowHitRate            73.97                       # Row buffer hit rate for reads (Ratio)
system.mem_ctrls.dram.writeRowHitRate             nan                       # Row buffer hit rate for writes (Ratio)
system.mem_ctrls.dram.bytesPerActivate::samples          235                       # Bytes accessed per row activation (Byte)
system.mem_ctrls.dram.bytesPerActivate::mean   245.651064                       # Bytes accessed per row activation (Byte)
system.mem_ctrls.dram.bytesPerActivate::gmean   160.596338                       # Bytes accessed per row activation (Byte)
system.mem_ctrls.dram.bytesPerActivate::stdev   255.241794                       # Bytes accessed per row activation (Byte)
system.mem_ctrls.dram.bytesPerActivate::0-127           86     36.60%     36.60% # Bytes accessed per row activation (Byte)
system.mem_ctrls.dram.bytesPerActivate::128-255           72     30.64%     67.23% # Bytes accessed per row activation (Byte)
system.mem_ctrls.dram.bytesPerActivate::256-383           27     11.49%     78.72% # Bytes accessed per row activation (Byte)
system.mem_ctrls.dram.bytesPerActivate::384-511           18      7.66%     86.38% # Bytes accessed per row activation (Byte)
system.mem_ctrls.dram.bytesPerActivate::512-639            4      1.70%     88.09% # Bytes accessed per row activation (Byte)
system.mem_ctrls.dram.bytesPerActivate::640-767            9      3.83%     91.91% # Bytes accessed per row activation (Byte)
system.mem_ctrls.dram.bytesPerActivate::768-895            7      2.98%     94.89% # Bytes accessed per row activation (Byte)
system.mem_ctrls.dram.bytesPerActivate::896-1023            2      0.85%     95.74% # Bytes accessed per row activation (Byte)
system.mem_ctrls.dram.bytesPerActivate::1024-1151           10      4.26%    100.00% # Bytes accessed per row activation (Byte)
system.mem_ctrls.dram.bytesPerActivate::total          235                       # Bytes accessed per row activation (Byte)
system.mem_ctrls.dram.bytesRead                 59008                       # Total number of bytes read from DRAM (Byte)
system.mem_ctrls.dram.bytesWritten                  0                       # Total number of bytes written to DRAM (Byte)
system.mem_ctrls.dram.avgRdBW             1041.697560                       # Average DRAM read bandwidth in MiBytes/s ((Byte/Second))
system.mem_ctrls.dram.avgWrBW                       0                       # Average DRAM write bandwidth in MiBytes/s ((Byte/Second))
system.mem_ctrls.dram.peakBW                 12800.00                       # Theoretical peak bandwidth in MiByte/s ((Byte/Second))
system.mem_ctrls.dram.busUtil                    8.14                       # Data bus utilization in percentage (Ratio)
system.mem_ctrls.dram.busUtilRead                8.14                       # Data bus utilization in percentage for reads (Ratio)
system.mem_ctrls.dram.busUtilWrite               0.00                       # Data bus utilization in percentage for writes (Ratio)
system.mem_ctrls.dram.pageHitRate               73.97                       # Row buffer hit rate, read and write combined (Ratio)
system.mem_ctrls.dram.power_state.pwrStateResidencyTicks::UNDEFINED     56646000                       # Cumulative time (in ticks) in various power states (Tick)
system.mem_ctrls.dram.rank0.actEnergy          885360                       # Energy for activate commands per rank (pJ) (Joule)
system.mem_ctrls.dram.rank0.preEnergy          462990                       # Energy for precharge commands per rank (pJ) (Joule)
system.mem_ctrls.dram.rank0.readEnergy        4369680                       # Energy for read commands per rank (pJ) (Joule)
system.mem_ctrls.dram.rank0.writeEnergy             0                       # Energy for write commands per rank (pJ) (Joule)
system.mem_ctrls.dram.rank0.refreshEnergy 4302480.000000                       # Energy for refresh commands per rank (pJ) (Joule)
system.mem_ctrls.dram.rank0.actBackEnergy     24867390                       # Energy for active background per rank (pJ) (Joule)
system.mem_ctrls.dram.rank0.preBackEnergy       811200                       # Energy for precharge background per rank (pJ) (Joule)
system.mem_ctrls.dram.rank0.actPowerDownEnergy            0                       # Energy for active power-down per rank (pJ) (Joule)
system.mem_ctrls.dram.rank0.prePowerDownEnergy            0                       # Energy for precharge power-down per rank (pJ) (Joule)
system.mem_ctrls.dram.rank0.selfRefreshEnergy            0                       # Energy for self refresh per rank (pJ) (Joule)
system.mem_ctrls.dram.rank0.totalEnergy      35699100                       # Total energy per rank (pJ) (Joule)
system.mem_ctrls.dram.rank0.averagePower   630.213960                       # Core power per rank (mW) (Watt)
system.mem_ctrls.dram.rank0.totalIdleTime            0                       # Total Idle time Per DRAM Rank (Tick)
system.mem_ctrls.dram.rank0.pwrStateTime::IDLE      1918250                       # Time in different power states (Tick)
system.mem_ctrls.dram.rank0.pwrStateTime::REF      1820000                       # Time in different power states (Tick)
system.mem_ctrls.dram.rank0.pwrStateTime::SREF            0                       # Time in different power states (Tick)
system.mem_ctrls.dram.rank0.pwrStateTime::PRE_PDN            0                       # Time in different power states (Tick)
system.mem_ctrls.dram.rank0.pwrStateTime::ACT     52907750                       # Time in different power states (Tick)
system.mem_ctrls.dram.rank0.pwrStateTime::ACT_PDN            0                       # Time in different power states (Tick)
system.mem_ctrls.dram.rank1.actEnergy          828240                       # Energy for activate commands per rank (pJ) (Joule)
system.mem_ctrls.dram.rank1.preEnergy          428835                       # Energy for precharge commands per rank (pJ) (Joule)
system.mem_ctrls.dram.rank1.readEnergy        2213400                       # Energy for read commands per rank (pJ) (Joule)
system.mem_ctrls.dram.rank1.writeEnergy             0                       # Energy for write commands per rank (pJ) (Joule)
system.mem_ctrls.dram.rank1.refreshEnergy 4302480.000000                       # Energy for refresh commands per rank (pJ) (Joule)
system.mem_ctrls.dram.rank1.actBackEnergy     25254990                       # Energy for active background per rank (pJ) (Joule)
system.mem_ctrls.dram.rank1.preBackEnergy       484800                       # Energy for precharge background per rank (pJ) (Joule)
system.mem_ctrls.dram.rank1.actPowerDownEnergy            0                       # Energy for active power-down per rank (pJ) (Joule)
system.mem_ctrls.dram.rank1.prePowerDownEnergy            0                       # Energy for precharge power-down per rank (pJ) (Joule)
system.mem_ctrls.dram.rank1.selfRefreshEnergy            0                       # Energy for self refresh per rank (pJ) (Joule)
system.mem_ctrls.dram.rank1.totalEnergy      33512745                       # Total energy per rank (pJ) (Joule)
system.mem_ctrls.dram.rank1.averagePower   591.617149                       # Core power per rank (mW) (Watt)
system.mem_ctrls.dram.rank1.totalIdleTime            0                       # Total Idle time Per DRAM Rank (Tick)
system.mem_ctrls.dram.rank1.pwrStateTime::IDLE      1025500                       # Time in different power states (Tick)
system.mem_ctrls.dram.rank1.pwrStateTime::REF      1820000                       # Time in different power states (Tick)
system.mem_ctrls.dram.rank1.pwrStateTime::SREF            0                       # Time in different power states (Tick)
system.mem_ctrls.dram.rank1.pwrStateTime::PRE_PDN            0                       # Time in different power states (Tick)
system.mem_ctrls.dram.rank1.pwrStateTime::ACT     53800500                       # Time in different power states (Tick)
system.mem_ctrls.dram.rank1.pwrStateTime::ACT_PDN            0                       # Time in different power states (Tick)
system.mem_ctrls.power_state.pwrStateResidencyTicks::UNDEFINED     56646000                       # Cumulative time (in ticks) in various power states (Tick)
system.membus.transDist::ReadResp                 808                       # Transaction distribution (Count)
system.membus.transDist::ReadExReq                114                       # Transaction distribution (Count)
system.membus.transDist::ReadExResp               114                       # Transaction distribution (Count)
system.membus.transDist::ReadSharedReq            808                       # Transaction distribution (Count)
system.membus.pktCount_system.l2.mem_side_port::system.mem_ctrls.port         1844                       # Packet count per connected requestor and responder (Count)
system.membus.pktCount_system.l2.mem_side_port::total         1844                       # Packet count per connected requestor and responder (Count)
system.membus.pktCount::total                    1844                       # Packet count per connected requestor and responder (Count)
system.membus.pktSize_system.l2.mem_side_port::system.mem_ctrls.port        59008                       # Cumulative packet size per connected requestor and responder (Byte)
system.membus.pktSize_system.l2.mem_side_port::total        59008                       # Cumulative packet size per connected requestor and responder (Byte)
system.membus.pktSize::total                    59008                       # Cumulative packet size per connected requestor and responder (Byte)
system.membus.snoops                                0                       # Total snoops (Count)
system.membus.snoopTraffic                          0                       # Total snoop traffic (Byte)
system.membus.snoopFanout::samples                922                       # Request fanout histogram (Count)
system.membus.snoopFanout::mean                     0                       # Request fanout histogram (Count)
system.membus.snoopFanout::stdev                    0                       # Request fanout histogram (Count)
system.membus.snoopFanout::underflows               0      0.00%      0.00% # Request fanout histogram (Count)
system.membus.snoopFanout::0                      922    100.00%    100.00% # Request fanout histogram (Count)
system.membus.snoopFanout::1                        0      0.00%    100.00% # Request fanout histogram (Count)
system.membus.snoopFanout::overflows                0      0.00%    100.00% # Request fanout histogram (Count)
system.membus.snoopFanout::min_value                0                       # Request fanout histogram (Count)
system.membus.snoopFanout::max_value                0                       # Request fanout histogram (Count)
system.membus.snoopFanout::total                  922                       # Request fanout histogram (Count)
system.membus.power_state.pwrStateResidencyTicks::UNDEFINED     56646000                       # Cumulative time (in ticks) in various power states (Tick)
system.membus.reqLayer2.occupancy             1121500                       # Layer occupancy (ticks) (Tick)
system.membus.reqLayer2.utilization               0.0                       # Layer utilization (Ratio)
system.membus.respLayer1.occupancy            4920750                       # Layer occupancy (ticks) (Tick)
system.membus.respLayer1.utilization              0.1                       # Layer utilization (Ratio)
system.membus.snoop_filter.totRequests            922                       # Total number of requests made to the snoop filter. (Count)
system.membus.snoop_filter.hitSingleRequests            0                       # Number of requests hitting in the snoop filter with a single holder of the requested data. (Count)
system.membus.snoop_filter.hitMultiRequests            0                       # Number of requests hitting in the snoop filter with multiple (>1) holders of the requested data. (Count)
system.membus.snoop_filter.totSnoops                0                       # Total number of snoops made to the snoop filter. (Count)
system.membus.snoop_filter.hitSingleSnoops            0                       # Number of snoops hitting in the snoop filter with a single holder of the requested data. (Count)
system.membus.snoop_filter.hitMultiSnoops            0                       # Number of snoops hitting in the snoop filter with multiple (>1) holders of the requested data. (Count)
system.tol2bus.transDist::ReadResp                834                       # Transaction distribution (Count)
system.tol2bus.transDist::WritebackClean          242                       # Transaction distribution (Count)
system.tol2bus.transDist::CleanEvict                2                       # Transaction distribution (Count)
system.tol2bus.transDist::UpgradeReq                4                       # Transaction distribution (Count)
system.tol2bus.transDist::UpgradeResp               4                       # Transaction distribution (Count)
system.tol2bus.transDist::ReadExReq               114                       # Transaction distribution (Count)
system.tol2bus.transDist::ReadExResp              114                       # Transaction distribution (Count)
system.tol2bus.transDist::ReadCleanReq            723                       # Transaction distribution (Count)
system.tol2bus.transDist::ReadSharedReq           111                       # Transaction distribution (Count)
system.tol2bus.pktCount_system.cpu.icache.mem_side_port::system.l2.cpu_side_port         1684                       # Packet count per connected requestor and responder (Count)
system.tol2bus.pktCount_system.cpu.dcache.mem_side_port::system.l2.cpu_side_port          460                       # Packet count per connected requestor and responder (Count)
system.tol2bus.pktCount::total                   2144                       # Packet count per connected requestor and responder (Count)
system.tol2bus.pktSize_system.cpu.icache.mem_side_port::system.l2.cpu_side_port        61504                       # Cumulative packet size per connected requestor and responder (Byte)
system.tol2bus.pktSize_system.cpu.dcache.mem_side_port::system.l2.cpu_side_port        14400                       # Cumulative packet size per connected requestor and responder (Byte)
system.tol2bus.pktSize::total                   75904                       # Cumulative packet size per connected requestor and responder (Byte)
system.tol2bus.snoops                               4                       # Total snoops (Count)
system.tol2bus.snoopTraffic                       256                       # Total snoop traffic (Byte)
system.tol2bus.snoopFanout::samples               952                       # Request fanout histogram (Count)
system.tol2bus.snoopFanout::mean             0.009454                       # Request fanout histogram (Count)
system.tol2bus.snoopFanout::stdev            0.096821                       # Request fanout histogram (Count)
system.tol2bus.snoopFanout::underflows              0      0.00%      0.00% # Request fanout histogram (Count)
system.tol2bus.snoopFanout::0                     943     99.05%     99.05% # Request fanout histogram (Count)
system.tol2bus.snoopFanout::1                       9      0.95%    100.00% # Request fanout histogram (Count)
system.tol2bus.snoopFanout::2                       0      0.00%    100.00% # Request fanout histogram (Count)
system.tol2bus.snoopFanout::3                       0      0.00%    100.00% # Request fanout histogram (Count)
system.tol2bus.snoopFanout::4                       0      0.00%    100.00% # Request fanout histogram (Count)
system.tol2bus.snoopFanout::overflows               0      0.00%    100.00% # Request fanout histogram (Count)
system.tol2bus.snoopFanout::min_value               0                       # Request fanout histogram (Count)
system.tol2bus.snoopFanout::max_value               1                       # Request fanout histogram (Count)
system.tol2bus.snoopFanout::total                 952                       # Request fanout histogram (Count)
system.tol2bus.power_state.pwrStateResidencyTicks::UNDEFINED     56646000                       # Cumulative time (in ticks) in various power states (Tick)
system.tol2bus.reqLayer0.occupancy             840000                       # Layer occupancy (ticks) (Tick)
system.tol2bus.reqLayer0.utilization              0.0                       # Layer utilization (Ratio)
system.tol2bus.respLayer0.occupancy           1084500                       # Layer occupancy (ticks) (Tick)
system.tol2bus.respLayer0.utilization             0.0                       # Layer utilization (Ratio)
system.tol2bus.respLayer1.occupancy            339500                       # Layer occupancy (ticks) (Tick)
system.tol2bus.respLayer1.utilization             0.0                       # Layer utilization (Ratio)
system.tol2bus.snoop_filter.totRequests          1196                       # Total number of requests made to the snoop filter. (Count)
system.tol2bus.snoop_filter.hitSingleRequests          248                       # Number of requests hitting in the snoop filter with a single holder of the requested data. (Count)
system.tol2bus.snoop_filter.hitMultiRequests            5                       # Number of requests hitting in the snoop filter with multiple (>1) holders of the requested data. (Count)
system.tol2bus.snoop_filter.totSnoops               0                       # Total number of snoops made to the snoop filter. (Count)
system.tol2bus.snoop_filter.hitSingleSnoops            0                       # Number of snoops hitting in the snoop filter with a single holder of the requested data. (Count)
system.tol2bus.snoop_filter.hitMultiSnoops            0                       # Number of snoops hitting in the snoop filter with multiple (>1) holders of the requested data. (Count)
system.voltage_domain.voltage                       1                       # Voltage in Volts (Volt)
system.workload.inst.arm                            0                       # number of arm instructions executed (Count)
system.workload.inst.quiesce                        0                       # number of quiesce instructions executed (Count)

---------- End Simulation Statistics   ----------
