
---------- Begin Simulation Statistics ----------
simSeconds                                   0.025784                       # Number of seconds simulated (Second)
simTicks                                  25784224500                       # Number of ticks simulated (Tick)
finalTick                                 25784224500                       # Number of ticks from beginning of simulation (restored from checkpoints and never reset) (Tick)
simFreq                                  1000000000000                       # The number of ticks per simulated second ((Tick/Second))
hostSeconds                                    347.14                       # Real time elapsed on the host (Second)
hostTickRate                                 74276765                       # The number of ticks simulated per host second (ticks/s) ((Tick/Second))
hostMemory                                    2219004                       # Number of bytes of host memory used (Byte)
simInsts                                     81122161                       # Number of instructions simulated (Count)
simOps                                      149806690                       # Number of ops (including micro ops) simulated (Count)
hostInstRate                                   233689                       # Simulator instruction rate (inst/s) ((Count/Second))
hostOpRate                                     431549                       # Simulator op (including micro ops) rate (op/s) ((Count/Second))
system.clk_domain.clock                          1000                       # Clock period in ticks (Tick)
system.cpu.numCycles                         51568450                       # Number of cpu cycles simulated (Cycle)
system.cpu.numWorkItemsStarted                      0                       # Number of work items this cpu started (Count)
system.cpu.numWorkItemsCompleted                    0                       # Number of work items this cpu completed (Count)
system.cpu.instsAdded                       156402960                       # Number of instructions added to the IQ (excludes non-spec) (Count)
system.cpu.nonSpecInstsAdded                   267481                       # Number of non-speculative instructions added to the IQ (Count)
system.cpu.instsIssued                      154583600                       # Number of instructions issued (Count)
system.cpu.squashedInstsIssued                   3194                       # Number of squashed instructions issued (Count)
system.cpu.squashedInstsExamined              6863729                       # Number of squashed instructions iterated over during squash; mainly for profiling (Count)
system.cpu.squashedOperandsExamined           9119938                       # Number of squashed operands that are examined and possibly removed from graph (Count)
system.cpu.squashedNonSpecRemoved               25087                       # Number of squashed non-spec instructions that were removed (Count)
system.cpu.numIssuedDist::samples            51527135                       # Number of insts issued each cycle (Count)
system.cpu.numIssuedDist::mean               3.000043                       # Number of insts issued each cycle (Count)
system.cpu.numIssuedDist::stdev              2.417447                       # Number of insts issued each cycle (Count)
system.cpu.numIssuedDist::underflows                0      0.00%      0.00% # Number of insts issued each cycle (Count)
system.cpu.numIssuedDist::0                  11664997     22.64%     22.64% # Number of insts issued each cycle (Count)
system.cpu.numIssuedDist::1                   5726784     11.11%     33.75% # Number of insts issued each cycle (Count)
system.cpu.numIssuedDist::2                   6922245     13.43%     47.19% # Number of insts issued each cycle (Count)
system.cpu.numIssuedDist::3                   5802248     11.26%     58.45% # Number of insts issued each cycle (Count)
system.cpu.numIssuedDist::4                   5863958     11.38%     69.83% # Number of insts issued each cycle (Count)
system.cpu.numIssuedDist::5                   5515955     10.70%     80.53% # Number of insts issued each cycle (Count)
system.cpu.numIssuedDist::6                   5354846     10.39%     90.92% # Number of insts issued each cycle (Count)
system.cpu.numIssuedDist::7                   2967917      5.76%     96.68% # Number of insts issued each cycle (Count)
system.cpu.numIssuedDist::8                   1708185      3.32%    100.00% # Number of insts issued each cycle (Count)
system.cpu.numIssuedDist::overflows                 0      0.00%    100.00% # Number of insts issued each cycle (Count)
system.cpu.numIssuedDist::min_value                 0                       # Number of insts issued each cycle (Count)
system.cpu.numIssuedDist::max_value                 8                       # Number of insts issued each cycle (Count)
system.cpu.numIssuedDist::total              51527135                       # Number of insts issued each cycle (Count)
system.cpu.statFuBusy::No_OpClass                   0      0.00%      0.00% # attempts to use FU when none available (Count)
system.cpu.statFuBusy::IntAlu                 1726366     59.23%     59.23% # attempts to use FU when none available (Count)
system.cpu.statFuBusy::IntMult                      0      0.00%     59.23% # attempts to use FU when none available (Count)
system.cpu.statFuBusy::IntDiv                       0      0.00%     59.23% # attempts to use FU when none available (Count)
system.cpu.statFuBusy::FloatAdd                     0      0.00%     59.23% # attempts to use FU when none available (Count)
system.cpu.statFuBusy::FloatCmp                     0      0.00%     59.23% # attempts to use FU when none available (Count)
system.cpu.statFuBusy::FloatCvt                     0      0.00%     59.23% # attempts to use FU when none available (Count)
system.cpu.statFuBusy::FloatMult                    0      0.00%     59.23% # attempts to use FU when none available (Count)
system.cpu.statFuBusy::FloatMultAcc                 0      0.00%     59.23% # attempts to use FU when none available (Count)
system.cpu.statFuBusy::FloatDiv                     0      0.00%     59.23% # attempts to use FU when none available (Count)
system.cpu.statFuBusy::FloatMisc                    0      0.00%     59.23% # attempts to use FU when none available (Count)
system.cpu.statFuBusy::FloatSqrt                    0      0.00%     59.23% # attempts to use FU when none available (Count)
system.cpu.statFuBusy::SimdAdd                      0      0.00%     59.23% # attempts to use FU when none available (Count)
system.cpu.statFuBusy::SimdAddAcc                   0      0.00%     59.23% # attempts to use FU when none available (Count)
system.cpu.statFuBusy::SimdAlu                      0      0.00%     59.23% # attempts to use FU when none available (Count)
system.cpu.statFuBusy::SimdCmp                      0      0.00%     59.23% # attempts to use FU when none available (Count)
system.cpu.statFuBusy::SimdCvt                      0      0.00%     59.23% # attempts to use FU when none available (Count)
system.cpu.statFuBusy::SimdMisc                     0      0.00%     59.23% # attempts to use FU when none available (Count)
system.cpu.statFuBusy::SimdMult                     0      0.00%     59.23% # attempts to use FU when none available (Count)
system.cpu.statFuBusy::SimdMultAcc                  0      0.00%     59.23% # attempts to use FU when none available (Count)
system.cpu.statFuBusy::SimdShift                    0      0.00%     59.23% # attempts to use FU when none available (Count)
system.cpu.statFuBusy::SimdShiftAcc                 0      0.00%     59.23% # attempts to use FU when none available (Count)
system.cpu.statFuBusy::SimdDiv                      0      0.00%     59.23% # attempts to use FU when none available (Count)
system.cpu.statFuBusy::SimdSqrt                     0      0.00%     59.23% # attempts to use FU when none available (Count)
system.cpu.statFuBusy::SimdFloatAdd                 0      0.00%     59.23% # attempts to use FU when none available (Count)
system.cpu.statFuBusy::SimdFloatAlu                 0      0.00%     59.23% # attempts to use FU when none available (Count)
system.cpu.statFuBusy::SimdFloatCmp                 0      0.00%     59.23% # attempts to use FU when none available (Count)
system.cpu.statFuBusy::SimdFloatCvt                 0      0.00%     59.23% # attempts to use FU when none available (Count)
system.cpu.statFuBusy::SimdFloatDiv                 0      0.00%     59.23% # attempts to use FU when none available (Count)
system.cpu.statFuBusy::SimdFloatMisc                0      0.00%     59.23% # attempts to use FU when none available (Count)
system.cpu.statFuBusy::SimdFloatMult                0      0.00%     59.23% # attempts to use FU when none available (Count)
system.cpu.statFuBusy::SimdFloatMultAcc             0      0.00%     59.23% # attempts to use FU when none available (Count)
system.cpu.statFuBusy::SimdFloatSqrt                0      0.00%     59.23% # attempts to use FU when none available (Count)
system.cpu.statFuBusy::SimdReduceAdd                0      0.00%     59.23% # attempts to use FU when none available (Count)
system.cpu.statFuBusy::SimdReduceAlu                0      0.00%     59.23% # attempts to use FU when none available (Count)
system.cpu.statFuBusy::SimdReduceCmp                0      0.00%     59.23% # attempts to use FU when none available (Count)
system.cpu.statFuBusy::SimdFloatReduceAdd            0      0.00%     59.23% # attempts to use FU when none available (Count)
system.cpu.statFuBusy::SimdFloatReduceCmp            0      0.00%     59.23% # attempts to use FU when none available (Count)
system.cpu.statFuBusy::SimdAes                      0      0.00%     59.23% # attempts to use FU when none available (Count)
system.cpu.statFuBusy::SimdAesMix                   0      0.00%     59.23% # attempts to use FU when none available (Count)
system.cpu.statFuBusy::SimdSha1Hash                 0      0.00%     59.23% # attempts to use FU when none available (Count)
system.cpu.statFuBusy::SimdSha1Hash2                0      0.00%     59.23% # attempts to use FU when none available (Count)
system.cpu.statFuBusy::SimdSha256Hash               0      0.00%     59.23% # attempts to use FU when none available (Count)
system.cpu.statFuBusy::SimdSha256Hash2              0      0.00%     59.23% # attempts to use FU when none available (Count)
system.cpu.statFuBusy::SimdShaSigma2                0      0.00%     59.23% # attempts to use FU when none available (Count)
system.cpu.statFuBusy::SimdShaSigma3                0      0.00%     59.23% # attempts to use FU when none available (Count)
system.cpu.statFuBusy::SimdPredAlu                  0      0.00%     59.23% # attempts to use FU when none available (Count)
system.cpu.statFuBusy::MemRead                 649508     22.28%     81.51% # attempts to use FU when none available (Count)
system.cpu.statFuBusy::MemWrite                514539     17.65%     99.17% # attempts to use FU when none available (Count)
system.cpu.statFuBusy::FloatMemRead             24239      0.83%    100.00% # attempts to use FU when none available (Count)
system.cpu.statFuBusy::FloatMemWrite                0      0.00%    100.00% # attempts to use FU when none available (Count)
system.cpu.statFuBusy::IprAccess                    0      0.00%    100.00% # attempts to use FU when none available (Count)
system.cpu.statFuBusy::InstPrefetch                 0      0.00%    100.00% # attempts to use FU when none available (Count)
system.cpu.statIssuedInstType_0::No_OpClass       367945      0.24%      0.24% # Number of instructions issued per FU type, per thread (Count)
system.cpu.statIssuedInstType_0::IntAlu     111018577     71.82%     72.06% # Number of instructions issued per FU type, per thread (Count)
system.cpu.statIssuedInstType_0::IntMult       784039      0.51%     72.56% # Number of instructions issued per FU type, per thread (Count)
system.cpu.statIssuedInstType_0::IntDiv        339481      0.22%     72.78% # Number of instructions issued per FU type, per thread (Count)
system.cpu.statIssuedInstType_0::FloatAdd        24239      0.02%     72.80% # Number of instructions issued per FU type, per thread (Count)
system.cpu.statIssuedInstType_0::FloatCmp            0      0.00%     72.80% # Number of instructions issued per FU type, per thread (Count)
system.cpu.statIssuedInstType_0::FloatCvt        24239      0.02%     72.81% # Number of instructions issued per FU type, per thread (Count)
system.cpu.statIssuedInstType_0::FloatMult        24239      0.02%     72.83% # Number of instructions issued per FU type, per thread (Count)
system.cpu.statIssuedInstType_0::FloatMultAcc            0      0.00%     72.83% # Number of instructions issued per FU type, per thread (Count)
system.cpu.statIssuedInstType_0::FloatDiv        48478      0.03%     72.86% # Number of instructions issued per FU type, per thread (Count)
system.cpu.statIssuedInstType_0::FloatMisc            0      0.00%     72.86% # Number of instructions issued per FU type, per thread (Count)
system.cpu.statIssuedInstType_0::FloatSqrt            0      0.00%     72.86% # Number of instructions issued per FU type, per thread (Count)
system.cpu.statIssuedInstType_0::SimdAdd            0      0.00%     72.86% # Number of instructions issued per FU type, per thread (Count)
system.cpu.statIssuedInstType_0::SimdAddAcc            0      0.00%     72.86% # Number of instructions issued per FU type, per thread (Count)
system.cpu.statIssuedInstType_0::SimdAlu            0      0.00%     72.86% # Number of instructions issued per FU type, per thread (Count)
system.cpu.statIssuedInstType_0::SimdCmp            0      0.00%     72.86% # Number of instructions issued per FU type, per thread (Count)
system.cpu.statIssuedInstType_0::SimdCvt            0      0.00%     72.86% # Number of instructions issued per FU type, per thread (Count)
system.cpu.statIssuedInstType_0::SimdMisc            0      0.00%     72.86% # Number of instructions issued per FU type, per thread (Count)
system.cpu.statIssuedInstType_0::SimdMult            0      0.00%     72.86% # Number of instructions issued per FU type, per thread (Count)
system.cpu.statIssuedInstType_0::SimdMultAcc            0      0.00%     72.86% # Number of instructions issued per FU type, per thread (Count)
system.cpu.statIssuedInstType_0::SimdShift            0      0.00%     72.86% # Number of instructions issued per FU type, per thread (Count)
system.cpu.statIssuedInstType_0::SimdShiftAcc            0      0.00%     72.86% # Number of instructions issued per FU type, per thread (Count)
system.cpu.statIssuedInstType_0::SimdDiv            0      0.00%     72.86% # Number of instructions issued per FU type, per thread (Count)
system.cpu.statIssuedInstType_0::SimdSqrt            0      0.00%     72.86% # Number of instructions issued per FU type, per thread (Count)
system.cpu.statIssuedInstType_0::SimdFloatAdd            0      0.00%     72.86% # Number of instructions issued per FU type, per thread (Count)
system.cpu.statIssuedInstType_0::SimdFloatAlu            0      0.00%     72.86% # Number of instructions issued per FU type, per thread (Count)
system.cpu.statIssuedInstType_0::SimdFloatCmp            0      0.00%     72.86% # Number of instructions issued per FU type, per thread (Count)
system.cpu.statIssuedInstType_0::SimdFloatCvt            0      0.00%     72.86% # Number of instructions issued per FU type, per thread (Count)
system.cpu.statIssuedInstType_0::SimdFloatDiv            0      0.00%     72.86% # Number of instructions issued per FU type, per thread (Count)
system.cpu.statIssuedInstType_0::SimdFloatMisc            0      0.00%     72.86% # Number of instructions issued per FU type, per thread (Count)
system.cpu.statIssuedInstType_0::SimdFloatMult            0      0.00%     72.86% # Number of instructions issued per FU type, per thread (Count)
system.cpu.statIssuedInstType_0::SimdFloatMultAcc            0      0.00%     72.86% # Number of instructions issued per FU type, per thread (Count)
system.cpu.statIssuedInstType_0::SimdFloatSqrt            0      0.00%     72.86% # Number of instructions issued per FU type, per thread (Count)
system.cpu.statIssuedInstType_0::SimdReduceAdd            0      0.00%     72.86% # Number of instructions issued per FU type, per thread (Count)
system.cpu.statIssuedInstType_0::SimdReduceAlu            0      0.00%     72.86% # Number of instructions issued per FU type, per thread (Count)
system.cpu.statIssuedInstType_0::SimdReduceCmp            0      0.00%     72.86% # Number of instructions issued per FU type, per thread (Count)
system.cpu.statIssuedInstType_0::SimdFloatReduceAdd            0      0.00%     72.86% # Number of instructions issued per FU type, per thread (Count)
system.cpu.statIssuedInstType_0::SimdFloatReduceCmp            0      0.00%     72.86% # Number of instructions issued per FU type, per thread (Count)
system.cpu.statIssuedInstType_0::SimdAes            0      0.00%     72.86% # Number of instructions issued per FU type, per thread (Count)
system.cpu.statIssuedInstType_0::SimdAesMix            0      0.00%     72.86% # Number of instructions issued per FU type, per thread (Count)
system.cpu.statIssuedInstType_0::SimdSha1Hash            0      0.00%     72.86% # Number of instructions issued per FU type, per thread (Count)
system.cpu.statIssuedInstType_0::SimdSha1Hash2            0      0.00%     72.86% # Number of instructions issued per FU type, per thread (Count)
system.cpu.statIssuedInstType_0::SimdSha256Hash            0      0.00%     72.86% # Number of instructions issued per FU type, per thread (Count)
system.cpu.statIssuedInstType_0::SimdSha256Hash2            0      0.00%     72.86% # Number of instructions issued per FU type, per thread (Count)
system.cpu.statIssuedInstType_0::SimdShaSigma2            0      0.00%     72.86% # Number of instructions issued per FU type, per thread (Count)
system.cpu.statIssuedInstType_0::SimdShaSigma3            0      0.00%     72.86% # Number of instructions issued per FU type, per thread (Count)
system.cpu.statIssuedInstType_0::SimdPredAlu            0      0.00%     72.86% # Number of instructions issued per FU type, per thread (Count)
system.cpu.statIssuedInstType_0::MemRead     24365896     15.76%     88.62% # Number of instructions issued per FU type, per thread (Count)
system.cpu.statIssuedInstType_0::MemWrite     17076713     11.05%     99.67% # Number of instructions issued per FU type, per thread (Count)
system.cpu.statIssuedInstType_0::FloatMemRead       291602      0.19%     99.86% # Number of instructions issued per FU type, per thread (Count)
system.cpu.statIssuedInstType_0::FloatMemWrite       218152      0.14%    100.00% # Number of instructions issued per FU type, per thread (Count)
system.cpu.statIssuedInstType_0::IprAccess            0      0.00%    100.00% # Number of instructions issued per FU type, per thread (Count)
system.cpu.statIssuedInstType_0::InstPrefetch            0      0.00%    100.00% # Number of instructions issued per FU type, per thread (Count)
system.cpu.statIssuedInstType_0::total      154583600                       # Number of instructions issued per FU type, per thread (Count)
system.cpu.issueRate                         2.997639                       # Inst issue rate ((Count/Cycle))
system.cpu.fuBusy                             2914652                       # FU busy when requested (Count)
system.cpu.fuBusyRate                        0.018855                       # FU busy rate (busy events/executed inst) ((Count/Count))
system.cpu.intInstQueueReads                361598872                       # Number of integer instruction queue reads (Count)
system.cpu.intInstQueueWrites               162496276                       # Number of integer instruction queue writes (Count)
system.cpu.intInstQueueWakeupAccesses       152647567                       # Number of integer instruction queue wakeup accesses (Count)
system.cpu.fpInstQueueReads                   2013309                       # Number of floating instruction queue reads (Count)
system.cpu.fpInstQueueWrites                  1045221                       # Number of floating instruction queue writes (Count)
system.cpu.fpInstQueueWakeupAccesses           994532                       # Number of floating instruction queue wakeup accesses (Count)
system.cpu.vecInstQueueReads                        0                       # Number of vector instruction queue reads (Count)
system.cpu.vecInstQueueWrites                       0                       # Number of vector instruction queue writes (Count)
system.cpu.vecInstQueueWakeupAccesses               0                       # Number of vector instruction queue wakeup accesses (Count)
system.cpu.intAluAccesses                   156111533                       # Number of integer alu accesses (Count)
system.cpu.fpAluAccesses                      1018774                       # Number of floating point alu accesses (Count)
system.cpu.vecAluAccesses                           0                       # Number of vector alu accesses (Count)
system.cpu.idleCycles                               0                       # Number of cycles IEW is idle (Cycle)
system.cpu.squashCycles                        452953                       # Number of cycles IEW is squashing (Cycle)
system.cpu.blockCycles                         830396                       # Number of cycles IEW is blocking (Cycle)
system.cpu.unblockCycles                         1211                       # Number of cycles IEW is unblocking (Cycle)
system.cpu.dispatchedInsts                  156670441                       # Number of instructions dispatched to IQ (Count)
system.cpu.dispSquashedInsts                     7971                       # Number of squashed instructions skipped by dispatch (Count)
system.cpu.dispLoadInsts                     24962238                       # Number of dispatched load instructions (Count)
system.cpu.dispStoreInsts                    17676659                       # Number of dispatched store instructions (Count)
system.cpu.dispNonSpecInsts                    267425                       # Number of dispatched non-speculative instructions (Count)
system.cpu.iqFullEvents                          1208                       # Number of times the IQ has become full, causing a stall (Count)
system.cpu.lsqFullEvents                            0                       # Number of times the LSQ has become full, causing a stall (Count)
system.cpu.memOrderViolationEvents               7550                       # Number of memory order violations (Count)
system.cpu.predictedTakenIncorrect              81201                       # Number of branches that were predicted taken incorrectly (Count)
system.cpu.predictedNotTakenIncorrect          367017                       # Number of branches that were predicted not taken incorrectly (Count)
system.cpu.branchMispredicts                   448218                       # Number of branch mispredicts detected at execute (Count)
system.cpu.numInsts                         154235451                       # Number of executed instructions (Count)
system.cpu.numLoadInsts                      24602028                       # Number of load instructions executed (Count)
system.cpu.numSquashedInsts                    348149                       # Number of squashed instructions skipped in execute (Count)
system.cpu.numSwp                                   0                       # Number of swp insts executed (Count)
system.cpu.numNop                                   0                       # Number of nop insts executed (Count)
system.cpu.numRefs                           41864415                       # Number of memory reference insts executed (Count)
system.cpu.numBranches                       16564367                       # Number of branches executed (Count)
system.cpu.numStoreInsts                     17262387                       # Number of stores executed (Count)
system.cpu.numRate                           2.990888                       # Inst execution rate ((Count/Cycle))
system.cpu.instsToCommit                    154068798                       # Cumulative count of insts sent to commit (Count)
system.cpu.writebackCount                   153642099                       # Cumulative count of insts written-back (Count)
system.cpu.producerInst                     109892812                       # Number of instructions producing a value (Count)
system.cpu.consumerInst                     184101120                       # Number of instructions consuming a value (Count)
system.cpu.wbRate                            2.979382                       # Insts written-back per cycle ((Count/Cycle))
system.cpu.wbFanout                          0.596915                       # Average fanout of values written-back ((Count/Count))
system.cpu.timesIdled                             338                       # Number of times that the entire CPU went into an idle state and unscheduled itself (Count)
system.cpu.idleCycles                           41315                       # Total number of cycles that the CPU has spent unscheduled due to idling (Cycle)
system.cpu.committedInsts                    81122161                       # Number of Instructions Simulated (Count)
system.cpu.committedOps                     149806690                       # Number of Ops (including micro ops) Simulated (Count)
system.cpu.cpi                               0.635689                       # CPI: Cycles Per Instruction ((Cycle/Count))
system.cpu.totalCpi                          0.635689                       # CPI: Total CPI of All Threads ((Cycle/Count))
system.cpu.ipc                               1.573097                       # IPC: Instructions Per Cycle ((Count/Cycle))
system.cpu.totalIpc                          1.573097                       # IPC: Total IPC of All Threads ((Count/Cycle))
system.cpu.intRegfileReads                  237074227                       # Number of integer regfile reads (Count)
system.cpu.intRegfileWrites                 120051993                       # Number of integer regfile writes (Count)
system.cpu.fpRegfileReads                     1163475                       # Number of floating regfile reads (Count)
system.cpu.fpRegfileWrites                     752141                       # Number of floating regfile writes (Count)
system.cpu.ccRegfileReads                    77175595                       # number of cc regfile reads (Count)
system.cpu.ccRegfileWrites                   49286055                       # number of cc regfile writes (Count)
system.cpu.miscRegfileReads                  73307234                       # number of misc regfile reads (Count)
system.cpu.miscRegfileWrites                   436308                       # number of misc regfile writes (Count)
system.cpu.MemDepUnit__0.insertedLoads       24962238                       # Number of loads inserted to the mem dependence unit. (Count)
system.cpu.MemDepUnit__0.insertedStores      17676659                       # Number of stores inserted to the mem dependence unit. (Count)
system.cpu.MemDepUnit__0.conflictingLoads      3784514                       # Number of conflicting loads. (Count)
system.cpu.MemDepUnit__0.conflictingStores      1986028                       # Number of conflicting stores. (Count)
system.cpu.MemDepUnit__1.insertedLoads              0                       # Number of loads inserted to the mem dependence unit. (Count)
system.cpu.MemDepUnit__1.insertedStores             0                       # Number of stores inserted to the mem dependence unit. (Count)
system.cpu.MemDepUnit__1.conflictingLoads            0                       # Number of conflicting loads. (Count)
system.cpu.MemDepUnit__1.conflictingStores            0                       # Number of conflicting stores. (Count)
system.cpu.MemDepUnit__2.insertedLoads              0                       # Number of loads inserted to the mem dependence unit. (Count)
system.cpu.MemDepUnit__2.insertedStores             0                       # Number of stores inserted to the mem dependence unit. (Count)
system.cpu.MemDepUnit__2.conflictingLoads            0                       # Number of conflicting loads. (Count)
system.cpu.MemDepUnit__2.conflictingStores            0                       # Number of conflicting stores. (Count)
system.cpu.MemDepUnit__3.insertedLoads              0                       # Number of loads inserted to the mem dependence unit. (Count)
system.cpu.MemDepUnit__3.insertedStores             0                       # Number of stores inserted to the mem dependence unit. (Count)
system.cpu.MemDepUnit__3.conflictingLoads            0                       # Number of conflicting loads. (Count)
system.cpu.MemDepUnit__3.conflictingStores            0                       # Number of conflicting stores. (Count)
system.cpu.branchPred.lookups                17304304                       # Number of BP lookups (Count)
system.cpu.branchPred.condPredicted          12850295                       # Number of conditional branches predicted (Count)
system.cpu.branchPred.condIncorrect            157080                       # Number of conditional branches incorrect (Count)
system.cpu.branchPred.BTBLookups              8559491                       # Number of BTB lookups (Count)
system.cpu.branchPred.BTBHits                 8504482                       # Number of BTB hits (Count)
system.cpu.branchPred.BTBHitRatio            0.993573                       # BTB Hit Ratio (Ratio)
system.cpu.branchPred.RASUsed                 1693009                       # Number of times the RAS was used to get a target. (Count)
system.cpu.branchPred.RASIncorrect              48495                       # Number of incorrect RAS predictions. (Count)
system.cpu.branchPred.indirectLookups          523310                       # Number of indirect predictor lookups. (Count)
system.cpu.branchPred.indirectHits             523031                       # Number of indirect target hits. (Count)
system.cpu.branchPred.indirectMisses              279                       # Number of indirect misses. (Count)
system.cpu.branchPred.indirectMispredicted          102                       # Number of mispredicted indirect branches. (Count)
system.cpu.branchPred.perceptron.lookups            0                       # Number of BP lookups (Count)
system.cpu.branchPred.perceptron.condPredicted            0                       # Number of conditional branches predicted (Count)
system.cpu.branchPred.perceptron.condIncorrect            0                       # Number of conditional branches incorrect (Count)
system.cpu.branchPred.perceptron.BTBLookups            0                       # Number of BTB lookups (Count)
system.cpu.branchPred.perceptron.BTBHits            0                       # Number of BTB hits (Count)
system.cpu.branchPred.perceptron.BTBHitRatio          nan                       # BTB Hit Ratio (Ratio)
system.cpu.branchPred.perceptron.RASUsed            0                       # Number of times the RAS was used to get a target. (Count)
system.cpu.branchPred.perceptron.RASIncorrect            0                       # Number of incorrect RAS predictions. (Count)
system.cpu.branchPred.perceptron.indirectLookups            0                       # Number of indirect predictor lookups. (Count)
system.cpu.branchPred.perceptron.indirectHits            0                       # Number of indirect target hits. (Count)
system.cpu.branchPred.perceptron.indirectMisses            0                       # Number of indirect misses. (Count)
system.cpu.branchPred.perceptron.indirectMispredicted            0                       # Number of mispredicted indirect branches. (Count)
system.cpu.branchPred.tage.lookups                  0                       # Number of BP lookups (Count)
system.cpu.branchPred.tage.condPredicted            0                       # Number of conditional branches predicted (Count)
system.cpu.branchPred.tage.condIncorrect            0                       # Number of conditional branches incorrect (Count)
system.cpu.branchPred.tage.BTBLookups               0                       # Number of BTB lookups (Count)
system.cpu.branchPred.tage.BTBHits                  0                       # Number of BTB hits (Count)
system.cpu.branchPred.tage.BTBHitRatio            nan                       # BTB Hit Ratio (Ratio)
system.cpu.branchPred.tage.RASUsed                  0                       # Number of times the RAS was used to get a target. (Count)
system.cpu.branchPred.tage.RASIncorrect             0                       # Number of incorrect RAS predictions. (Count)
system.cpu.branchPred.tage.indirectLookups            0                       # Number of indirect predictor lookups. (Count)
system.cpu.branchPred.tage.indirectHits             0                       # Number of indirect target hits. (Count)
system.cpu.branchPred.tage.indirectMisses            0                       # Number of indirect misses. (Count)
system.cpu.branchPred.tage.indirectMispredicted            0                       # Number of mispredicted indirect branches. (Count)
system.cpu.branchPred.tage.tage.longestMatchProviderCorrect      5444445                       # Number of times TAGE Longest Match is the provider and the prediction is correct (Count)
system.cpu.branchPred.tage.tage.altMatchProviderCorrect        20109                       # Number of times TAGE Alt Match is the provider and the prediction is correct (Count)
system.cpu.branchPred.tage.tage.bimodalAltMatchProviderCorrect          331                       # Number of times TAGE Alt Match is the bimodal and it is the provider and the prediction is correct (Count)
system.cpu.branchPred.tage.tage.bimodalProviderCorrect      6600067                       # Number of times there are no hits on the TAGE tables and the bimodal prediction is correct (Count)
system.cpu.branchPred.tage.tage.longestMatchProviderWrong        39208                       # Number of times TAGE Longest Match is the provider and the prediction is wrong (Count)
system.cpu.branchPred.tage.tage.altMatchProviderWrong         9973                       # Number of times TAGE Alt Match is the provider and the prediction is wrong (Count)
system.cpu.branchPred.tage.tage.bimodalAltMatchProviderWrong          159                       # Number of times TAGE Alt Match is the bimodal and it is the provider and the prediction is wrong (Count)
system.cpu.branchPred.tage.tage.bimodalProviderWrong          668                       # Number of times there are no hits on the TAGE tables and the bimodal prediction is wrong (Count)
system.cpu.branchPred.tage.tage.altMatchProviderWouldHaveHit         6855                       # Number of times TAGE Longest Match is the provider, the prediction is wrong and Alt Match prediction was correct (Count)
system.cpu.branchPred.tage.tage.longestMatchProviderWouldHaveHit         5308                       # Number of times TAGE Alt Match is the provider, the prediction is wrong and Longest Match prediction was correct (Count)
system.cpu.branchPred.tage.tage.longestMatchProvider::0            0                       # TAGE provider for longest match (Count)
system.cpu.branchPred.tage.tage.longestMatchProvider::1      2183479                       # TAGE provider for longest match (Count)
system.cpu.branchPred.tage.tage.longestMatchProvider::2      1195431                       # TAGE provider for longest match (Count)
system.cpu.branchPred.tage.tage.longestMatchProvider::3       833405                       # TAGE provider for longest match (Count)
system.cpu.branchPred.tage.tage.longestMatchProvider::4       243824                       # TAGE provider for longest match (Count)
system.cpu.branchPred.tage.tage.longestMatchProvider::5       332604                       # TAGE provider for longest match (Count)
system.cpu.branchPred.tage.tage.longestMatchProvider::6       139272                       # TAGE provider for longest match (Count)
system.cpu.branchPred.tage.tage.longestMatchProvider::7       156094                       # TAGE provider for longest match (Count)
system.cpu.branchPred.tage.tage.longestMatchProvider::8        79946                       # TAGE provider for longest match (Count)
system.cpu.branchPred.tage.tage.longestMatchProvider::9        22175                       # TAGE provider for longest match (Count)
system.cpu.branchPred.tage.tage.longestMatchProvider::10        59435                       # TAGE provider for longest match (Count)
system.cpu.branchPred.tage.tage.longestMatchProvider::11       102897                       # TAGE provider for longest match (Count)
system.cpu.branchPred.tage.tage.longestMatchProvider::12       165173                       # TAGE provider for longest match (Count)
system.cpu.branchPred.tage.tage.altMatchProvider::0      3597824                       # TAGE provider for alt match (Count)
system.cpu.branchPred.tage.tage.altMatchProvider::1       524771                       # TAGE provider for alt match (Count)
system.cpu.branchPred.tage.tage.altMatchProvider::2       381450                       # TAGE provider for alt match (Count)
system.cpu.branchPred.tage.tage.altMatchProvider::3       108156                       # TAGE provider for alt match (Count)
system.cpu.branchPred.tage.tage.altMatchProvider::4       266466                       # TAGE provider for alt match (Count)
system.cpu.branchPred.tage.tage.altMatchProvider::5       156976                       # TAGE provider for alt match (Count)
system.cpu.branchPred.tage.tage.altMatchProvider::6        79807                       # TAGE provider for alt match (Count)
system.cpu.branchPred.tage.tage.altMatchProvider::7        72844                       # TAGE provider for alt match (Count)
system.cpu.branchPred.tage.tage.altMatchProvider::8        18166                       # TAGE provider for alt match (Count)
system.cpu.branchPred.tage.tage.altMatchProvider::9        62144                       # TAGE provider for alt match (Count)
system.cpu.branchPred.tage.tage.altMatchProvider::10       104971                       # TAGE provider for alt match (Count)
system.cpu.branchPred.tage.tage.altMatchProvider::11       140160                       # TAGE provider for alt match (Count)
system.cpu.branchPred.tage.tage.altMatchProvider::12            0                       # TAGE provider for alt match (Count)
system.cpu.commit.commitSquashedInsts         6815289                       # The number of squashed insts skipped by commit (Count)
system.cpu.commit.commitNonSpecStalls          242394                       # The number of times commit has been forced to stall to communicate backwards (Count)
system.cpu.commit.branchMispredicts            398724                       # The number of times a branch was mispredicted (Count)
system.cpu.commit.numCommittedDist::samples     50244461                       # Number of insts commited each cycle (Count)
system.cpu.commit.numCommittedDist::mean     2.981556                       # Number of insts commited each cycle (Count)
system.cpu.commit.numCommittedDist::stdev     3.045567                       # Number of insts commited each cycle (Count)
system.cpu.commit.numCommittedDist::underflows            0      0.00%      0.00% # Number of insts commited each cycle (Count)
system.cpu.commit.numCommittedDist::0        14759219     29.37%     29.37% # Number of insts commited each cycle (Count)
system.cpu.commit.numCommittedDist::1         8586509     17.09%     46.46% # Number of insts commited each cycle (Count)
system.cpu.commit.numCommittedDist::2         5157264     10.26%     56.73% # Number of insts commited each cycle (Count)
system.cpu.commit.numCommittedDist::3         4444284      8.85%     65.57% # Number of insts commited each cycle (Count)
system.cpu.commit.numCommittedDist::4         2896123      5.76%     71.34% # Number of insts commited each cycle (Count)
system.cpu.commit.numCommittedDist::5         1870032      3.72%     75.06% # Number of insts commited each cycle (Count)
system.cpu.commit.numCommittedDist::6         1280589      2.55%     77.61% # Number of insts commited each cycle (Count)
system.cpu.commit.numCommittedDist::7         1048913      2.09%     79.70% # Number of insts commited each cycle (Count)
system.cpu.commit.numCommittedDist::8        10201528     20.30%    100.00% # Number of insts commited each cycle (Count)
system.cpu.commit.numCommittedDist::overflows            0      0.00%    100.00% # Number of insts commited each cycle (Count)
system.cpu.commit.numCommittedDist::min_value            0                       # Number of insts commited each cycle (Count)
system.cpu.commit.numCommittedDist::max_value            8                       # Number of insts commited each cycle (Count)
system.cpu.commit.numCommittedDist::total     50244461                       # Number of insts commited each cycle (Count)
system.cpu.commit.instsCommitted             81122161                       # Number of instructions committed (Count)
system.cpu.commit.opsCommitted              149806690                       # Number of ops (including micro ops) committed (Count)
system.cpu.commit.memRefs                    40724057                       # Number of memory references committed (Count)
system.cpu.commit.loads                      23730455                       # Number of loads committed (Count)
system.cpu.commit.amos                              0                       # Number of atomic instructions committed (Count)
system.cpu.commit.membars                           0                       # Number of memory barriers committed (Count)
system.cpu.commit.branches                   16183261                       # Number of branches committed (Count)
system.cpu.commit.vectorInstructions                0                       # Number of committed Vector instructions. (Count)
system.cpu.commit.floating                     993799                       # Number of committed floating point instructions. (Count)
system.cpu.commit.integer                   148613972                       # Number of committed integer instructions. (Count)
system.cpu.commit.functionCalls               1528742                       # Number of function calls committed. (Count)
system.cpu.commit.committedInstType_0::No_OpClass        75992      0.05%      0.05% # Class of committed instruction (Count)
system.cpu.commit.committedInstType_0::IntAlu    107762111     71.93%     71.98% # Class of committed instruction (Count)
system.cpu.commit.committedInstType_0::IntMult       783933      0.52%     72.51% # Class of committed instruction (Count)
system.cpu.commit.committedInstType_0::IntDiv       339402      0.23%     72.73% # Class of committed instruction (Count)
system.cpu.commit.committedInstType_0::FloatAdd        24239      0.02%     72.75% # Class of committed instruction (Count)
system.cpu.commit.committedInstType_0::FloatCmp            0      0.00%     72.75% # Class of committed instruction (Count)
system.cpu.commit.committedInstType_0::FloatCvt        24239      0.02%     72.77% # Class of committed instruction (Count)
system.cpu.commit.committedInstType_0::FloatMult        24239      0.02%     72.78% # Class of committed instruction (Count)
system.cpu.commit.committedInstType_0::FloatMultAcc            0      0.00%     72.78% # Class of committed instruction (Count)
system.cpu.commit.committedInstType_0::FloatDiv        48478      0.03%     72.82% # Class of committed instruction (Count)
system.cpu.commit.committedInstType_0::FloatMisc            0      0.00%     72.82% # Class of committed instruction (Count)
system.cpu.commit.committedInstType_0::FloatSqrt            0      0.00%     72.82% # Class of committed instruction (Count)
system.cpu.commit.committedInstType_0::SimdAdd            0      0.00%     72.82% # Class of committed instruction (Count)
system.cpu.commit.committedInstType_0::SimdAddAcc            0      0.00%     72.82% # Class of committed instruction (Count)
system.cpu.commit.committedInstType_0::SimdAlu            0      0.00%     72.82% # Class of committed instruction (Count)
system.cpu.commit.committedInstType_0::SimdCmp            0      0.00%     72.82% # Class of committed instruction (Count)
system.cpu.commit.committedInstType_0::SimdCvt            0      0.00%     72.82% # Class of committed instruction (Count)
system.cpu.commit.committedInstType_0::SimdMisc            0      0.00%     72.82% # Class of committed instruction (Count)
system.cpu.commit.committedInstType_0::SimdMult            0      0.00%     72.82% # Class of committed instruction (Count)
system.cpu.commit.committedInstType_0::SimdMultAcc            0      0.00%     72.82% # Class of committed instruction (Count)
system.cpu.commit.committedInstType_0::SimdShift            0      0.00%     72.82% # Class of committed instruction (Count)
system.cpu.commit.committedInstType_0::SimdShiftAcc            0      0.00%     72.82% # Class of committed instruction (Count)
system.cpu.commit.committedInstType_0::SimdDiv            0      0.00%     72.82% # Class of committed instruction (Count)
system.cpu.commit.committedInstType_0::SimdSqrt            0      0.00%     72.82% # Class of committed instruction (Count)
system.cpu.commit.committedInstType_0::SimdFloatAdd            0      0.00%     72.82% # Class of committed instruction (Count)
system.cpu.commit.committedInstType_0::SimdFloatAlu            0      0.00%     72.82% # Class of committed instruction (Count)
system.cpu.commit.committedInstType_0::SimdFloatCmp            0      0.00%     72.82% # Class of committed instruction (Count)
system.cpu.commit.committedInstType_0::SimdFloatCvt            0      0.00%     72.82% # Class of committed instruction (Count)
system.cpu.commit.committedInstType_0::SimdFloatDiv            0      0.00%     72.82% # Class of committed instruction (Count)
system.cpu.commit.committedInstType_0::SimdFloatMisc            0      0.00%     72.82% # Class of committed instruction (Count)
system.cpu.commit.committedInstType_0::SimdFloatMult            0      0.00%     72.82% # Class of committed instruction (Count)
system.cpu.commit.committedInstType_0::SimdFloatMultAcc            0      0.00%     72.82% # Class of committed instruction (Count)
system.cpu.commit.committedInstType_0::SimdFloatSqrt            0      0.00%     72.82% # Class of committed instruction (Count)
system.cpu.commit.committedInstType_0::SimdReduceAdd            0      0.00%     72.82% # Class of committed instruction (Count)
system.cpu.commit.committedInstType_0::SimdReduceAlu            0      0.00%     72.82% # Class of committed instruction (Count)
system.cpu.commit.committedInstType_0::SimdReduceCmp            0      0.00%     72.82% # Class of committed instruction (Count)
system.cpu.commit.committedInstType_0::SimdFloatReduceAdd            0      0.00%     72.82% # Class of committed instruction (Count)
system.cpu.commit.committedInstType_0::SimdFloatReduceCmp            0      0.00%     72.82% # Class of committed instruction (Count)
system.cpu.commit.committedInstType_0::SimdAes            0      0.00%     72.82% # Class of committed instruction (Count)
system.cpu.commit.committedInstType_0::SimdAesMix            0      0.00%     72.82% # Class of committed instruction (Count)
system.cpu.commit.committedInstType_0::SimdSha1Hash            0      0.00%     72.82% # Class of committed instruction (Count)
system.cpu.commit.committedInstType_0::SimdSha1Hash2            0      0.00%     72.82% # Class of committed instruction (Count)
system.cpu.commit.committedInstType_0::SimdSha256Hash            0      0.00%     72.82% # Class of committed instruction (Count)
system.cpu.commit.committedInstType_0::SimdSha256Hash2            0      0.00%     72.82% # Class of committed instruction (Count)
system.cpu.commit.committedInstType_0::SimdShaSigma2            0      0.00%     72.82% # Class of committed instruction (Count)
system.cpu.commit.committedInstType_0::SimdShaSigma3            0      0.00%     72.82% # Class of committed instruction (Count)
system.cpu.commit.committedInstType_0::SimdPredAlu            0      0.00%     72.82% # Class of committed instruction (Count)
system.cpu.commit.committedInstType_0::MemRead     23439587     15.65%     88.46% # Class of committed instruction (Count)
system.cpu.commit.committedInstType_0::MemWrite     16775451     11.20%     99.66% # Class of committed instruction (Count)
system.cpu.commit.committedInstType_0::FloatMemRead       290868      0.19%     99.85% # Class of committed instruction (Count)
system.cpu.commit.committedInstType_0::FloatMemWrite       218151      0.15%    100.00% # Class of committed instruction (Count)
system.cpu.commit.committedInstType_0::IprAccess            0      0.00%    100.00% # Class of committed instruction (Count)
system.cpu.commit.committedInstType_0::InstPrefetch            0      0.00%    100.00% # Class of committed instruction (Count)
system.cpu.commit.committedInstType_0::total    149806690                       # Class of committed instruction (Count)
system.cpu.commit.commitEligibleSamples      10201528                       # number cycles where commit BW limit reached (Cycle)
system.cpu.dcache.demandHits::cpu.data       31161956                       # number of demand (read+write) hits (Count)
system.cpu.dcache.demandHits::total          31161956                       # number of demand (read+write) hits (Count)
system.cpu.dcache.overallHits::cpu.data      31161956                       # number of overall hits (Count)
system.cpu.dcache.overallHits::total         31161956                       # number of overall hits (Count)
system.cpu.dcache.demandMisses::cpu.data          231                       # number of demand (read+write) misses (Count)
system.cpu.dcache.demandMisses::total             231                       # number of demand (read+write) misses (Count)
system.cpu.dcache.overallMisses::cpu.data          231                       # number of overall misses (Count)
system.cpu.dcache.overallMisses::total            231                       # number of overall misses (Count)
system.cpu.dcache.demandMissLatency::cpu.data     17920000                       # number of demand (read+write) miss ticks (Tick)
system.cpu.dcache.demandMissLatency::total     17920000                       # number of demand (read+write) miss ticks (Tick)
system.cpu.dcache.overallMissLatency::cpu.data     17920000                       # number of overall miss ticks (Tick)
system.cpu.dcache.overallMissLatency::total     17920000                       # number of overall miss ticks (Tick)
system.cpu.dcache.demandAccesses::cpu.data     31162187                       # number of demand (read+write) accesses (Count)
system.cpu.dcache.demandAccesses::total      31162187                       # number of demand (read+write) accesses (Count)
system.cpu.dcache.overallAccesses::cpu.data     31162187                       # number of overall (read+write) accesses (Count)
system.cpu.dcache.overallAccesses::total     31162187                       # number of overall (read+write) accesses (Count)
system.cpu.dcache.demandMissRate::cpu.data     0.000007                       # miss rate for demand accesses (Ratio)
system.cpu.dcache.demandMissRate::total      0.000007                       # miss rate for demand accesses (Ratio)
system.cpu.dcache.overallMissRate::cpu.data     0.000007                       # miss rate for overall accesses (Ratio)
system.cpu.dcache.overallMissRate::total     0.000007                       # miss rate for overall accesses (Ratio)
system.cpu.dcache.demandAvgMissLatency::cpu.data 77575.757576                       # average overall miss latency ((Cycle/Count))
system.cpu.dcache.demandAvgMissLatency::total 77575.757576                       # average overall miss latency ((Cycle/Count))
system.cpu.dcache.overallAvgMissLatency::cpu.data 77575.757576                       # average overall miss latency ((Cycle/Count))
system.cpu.dcache.overallAvgMissLatency::total 77575.757576                       # average overall miss latency ((Cycle/Count))
system.cpu.dcache.blockedCycles::no_mshrs          311                       # number of cycles access was blocked (Cycle)
system.cpu.dcache.blockedCycles::no_targets            0                       # number of cycles access was blocked (Cycle)
system.cpu.dcache.blockedCauses::no_mshrs            8                       # number of times access was blocked (Count)
system.cpu.dcache.blockedCauses::no_targets            0                       # number of times access was blocked (Count)
system.cpu.dcache.avgBlocked::no_mshrs      38.875000                       # average number of cycles each access was blocked ((Cycle/Count))
system.cpu.dcache.avgBlocked::no_targets          nan                       # average number of cycles each access was blocked ((Cycle/Count))
system.cpu.dcache.demandMshrHits::cpu.data           85                       # number of demand (read+write) MSHR hits (Count)
system.cpu.dcache.demandMshrHits::total            85                       # number of demand (read+write) MSHR hits (Count)
system.cpu.dcache.overallMshrHits::cpu.data           85                       # number of overall MSHR hits (Count)
system.cpu.dcache.overallMshrHits::total           85                       # number of overall MSHR hits (Count)
system.cpu.dcache.demandMshrMisses::cpu.data          146                       # number of demand (read+write) MSHR misses (Count)
system.cpu.dcache.demandMshrMisses::total          146                       # number of demand (read+write) MSHR misses (Count)
system.cpu.dcache.overallMshrMisses::cpu.data          146                       # number of overall MSHR misses (Count)
system.cpu.dcache.overallMshrMisses::total          146                       # number of overall MSHR misses (Count)
system.cpu.dcache.demandMshrMissLatency::cpu.data     11858500                       # number of demand (read+write) MSHR miss ticks (Tick)
system.cpu.dcache.demandMshrMissLatency::total     11858500                       # number of demand (read+write) MSHR miss ticks (Tick)
system.cpu.dcache.overallMshrMissLatency::cpu.data     11858500                       # number of overall MSHR miss ticks (Tick)
system.cpu.dcache.overallMshrMissLatency::total     11858500                       # number of overall MSHR miss ticks (Tick)
system.cpu.dcache.demandMshrMissRate::cpu.data     0.000005                       # mshr miss ratio for demand accesses (Ratio)
system.cpu.dcache.demandMshrMissRate::total     0.000005                       # mshr miss ratio for demand accesses (Ratio)
system.cpu.dcache.overallMshrMissRate::cpu.data     0.000005                       # mshr miss ratio for overall accesses (Ratio)
system.cpu.dcache.overallMshrMissRate::total     0.000005                       # mshr miss ratio for overall accesses (Ratio)
system.cpu.dcache.demandAvgMshrMissLatency::cpu.data 81222.602740                       # average overall mshr miss latency ((Cycle/Count))
system.cpu.dcache.demandAvgMshrMissLatency::total 81222.602740                       # average overall mshr miss latency ((Cycle/Count))
system.cpu.dcache.overallAvgMshrMissLatency::cpu.data 81222.602740                       # average overall mshr miss latency ((Cycle/Count))
system.cpu.dcache.overallAvgMshrMissLatency::total 81222.602740                       # average overall mshr miss latency ((Cycle/Count))
system.cpu.dcache.replacements                      1                       # number of replacements (Count)
system.cpu.dcache.ReadReq.hits::cpu.data     14168416                       # number of ReadReq hits (Count)
system.cpu.dcache.ReadReq.hits::total        14168416                       # number of ReadReq hits (Count)
system.cpu.dcache.ReadReq.misses::cpu.data          169                       # number of ReadReq misses (Count)
system.cpu.dcache.ReadReq.misses::total           169                       # number of ReadReq misses (Count)
system.cpu.dcache.ReadReq.missLatency::cpu.data     13155500                       # number of ReadReq miss ticks (Tick)
system.cpu.dcache.ReadReq.missLatency::total     13155500                       # number of ReadReq miss ticks (Tick)
system.cpu.dcache.ReadReq.accesses::cpu.data     14168585                       # number of ReadReq accesses(hits+misses) (Count)
system.cpu.dcache.ReadReq.accesses::total     14168585                       # number of ReadReq accesses(hits+misses) (Count)
system.cpu.dcache.ReadReq.missRate::cpu.data     0.000012                       # miss rate for ReadReq accesses (Ratio)
system.cpu.dcache.ReadReq.missRate::total     0.000012                       # miss rate for ReadReq accesses (Ratio)
system.cpu.dcache.ReadReq.avgMissLatency::cpu.data 77843.195266                       # average ReadReq miss latency ((Tick/Count))
system.cpu.dcache.ReadReq.avgMissLatency::total 77843.195266                       # average ReadReq miss latency ((Tick/Count))
system.cpu.dcache.ReadReq.mshrHits::cpu.data           83                       # number of ReadReq MSHR hits (Count)
system.cpu.dcache.ReadReq.mshrHits::total           83                       # number of ReadReq MSHR hits (Count)
system.cpu.dcache.ReadReq.mshrMisses::cpu.data           86                       # number of ReadReq MSHR misses (Count)
system.cpu.dcache.ReadReq.mshrMisses::total           86                       # number of ReadReq MSHR misses (Count)
system.cpu.dcache.ReadReq.mshrMissLatency::cpu.data      7282000                       # number of ReadReq MSHR miss ticks (Tick)
system.cpu.dcache.ReadReq.mshrMissLatency::total      7282000                       # number of ReadReq MSHR miss ticks (Tick)
system.cpu.dcache.ReadReq.mshrMissRate::cpu.data     0.000006                       # mshr miss rate for ReadReq accesses (Ratio)
system.cpu.dcache.ReadReq.mshrMissRate::total     0.000006                       # mshr miss rate for ReadReq accesses (Ratio)
system.cpu.dcache.ReadReq.avgMshrMissLatency::cpu.data 84674.418605                       # average ReadReq mshr miss latency ((Tick/Count))
system.cpu.dcache.ReadReq.avgMshrMissLatency::total 84674.418605                       # average ReadReq mshr miss latency ((Tick/Count))
system.cpu.dcache.WriteReq.hits::cpu.data     16993540                       # number of WriteReq hits (Count)
system.cpu.dcache.WriteReq.hits::total       16993540                       # number of WriteReq hits (Count)
system.cpu.dcache.WriteReq.misses::cpu.data           62                       # number of WriteReq misses (Count)
system.cpu.dcache.WriteReq.misses::total           62                       # number of WriteReq misses (Count)
system.cpu.dcache.WriteReq.missLatency::cpu.data      4764500                       # number of WriteReq miss ticks (Tick)
system.cpu.dcache.WriteReq.missLatency::total      4764500                       # number of WriteReq miss ticks (Tick)
system.cpu.dcache.WriteReq.accesses::cpu.data     16993602                       # number of WriteReq accesses(hits+misses) (Count)
system.cpu.dcache.WriteReq.accesses::total     16993602                       # number of WriteReq accesses(hits+misses) (Count)
system.cpu.dcache.WriteReq.missRate::cpu.data     0.000004                       # miss rate for WriteReq accesses (Ratio)
system.cpu.dcache.WriteReq.missRate::total     0.000004                       # miss rate for WriteReq accesses (Ratio)
system.cpu.dcache.WriteReq.avgMissLatency::cpu.data 76846.774194                       # average WriteReq miss latency ((Tick/Count))
system.cpu.dcache.WriteReq.avgMissLatency::total 76846.774194                       # average WriteReq miss latency ((Tick/Count))
system.cpu.dcache.WriteReq.mshrHits::cpu.data            2                       # number of WriteReq MSHR hits (Count)
system.cpu.dcache.WriteReq.mshrHits::total            2                       # number of WriteReq MSHR hits (Count)
system.cpu.dcache.WriteReq.mshrMisses::cpu.data           60                       # number of WriteReq MSHR misses (Count)
system.cpu.dcache.WriteReq.mshrMisses::total           60                       # number of WriteReq MSHR misses (Count)
system.cpu.dcache.WriteReq.mshrMissLatency::cpu.data      4576500                       # number of WriteReq MSHR miss ticks (Tick)
system.cpu.dcache.WriteReq.mshrMissLatency::total      4576500                       # number of WriteReq MSHR miss ticks (Tick)
system.cpu.dcache.WriteReq.mshrMissRate::cpu.data     0.000004                       # mshr miss rate for WriteReq accesses (Ratio)
system.cpu.dcache.WriteReq.mshrMissRate::total     0.000004                       # mshr miss rate for WriteReq accesses (Ratio)
system.cpu.dcache.WriteReq.avgMshrMissLatency::cpu.data        76275                       # average WriteReq mshr miss latency ((Tick/Count))
system.cpu.dcache.WriteReq.avgMshrMissLatency::total        76275                       # average WriteReq mshr miss latency ((Tick/Count))
system.cpu.dcache.power_state.pwrStateResidencyTicks::UNDEFINED  25784224500                       # Cumulative time (in ticks) in various power states (Tick)
system.cpu.dcache.tags.tagsInUse           131.931650                       # Average ticks per tags in use ((Tick/Count))
system.cpu.dcache.tags.totalRefs             31162102                       # Total number of references to valid blocks. (Count)
system.cpu.dcache.tags.sampledRefs                141                       # Sample count of references to valid blocks. (Count)
system.cpu.dcache.tags.avgRefs           221007.815603                       # Average number of references to valid blocks. ((Count/Count))
system.cpu.dcache.tags.warmupTick              176500                       # The tick when the warmup percentage was hit. (Tick)
system.cpu.dcache.tags.occupancies::cpu.data   131.931650                       # Average occupied blocks per tick, per requestor ((Count/Tick))
system.cpu.dcache.tags.avgOccs::cpu.data     0.257679                       # Average percentage of cache occupancy ((Ratio/Tick))
system.cpu.dcache.tags.avgOccs::total        0.257679                       # Average percentage of cache occupancy ((Ratio/Tick))
system.cpu.dcache.tags.occupanciesTaskId::1024          140                       # Occupied blocks per task id (Count)
system.cpu.dcache.tags.ageTaskId_1024::0            8                       # Occupied blocks per task id, per block age (Count)
system.cpu.dcache.tags.ageTaskId_1024::4          132                       # Occupied blocks per task id, per block age (Count)
system.cpu.dcache.tags.ratioOccsTaskId::1024     0.273438                       # Ratio of occupied blocks and all blocks, per task id (Ratio)
system.cpu.dcache.tags.tagAccesses          124648889                       # Number of tag accesses (Count)
system.cpu.dcache.tags.dataAccesses         124648889                       # Number of data accesses (Count)
system.cpu.dcache.tags.power_state.pwrStateResidencyTicks::UNDEFINED  25784224500                       # Cumulative time (in ticks) in various power states (Tick)
system.cpu.decode.idleCycles                 13473753                       # Number of cycles decode is idle (Cycle)
system.cpu.decode.blockedCycles              11998234                       # Number of cycles decode is blocked (Cycle)
system.cpu.decode.runCycles                  23864685                       # Number of cycles decode is running (Cycle)
system.cpu.decode.unblockCycles               1737510                       # Number of cycles decode is unblocking (Cycle)
system.cpu.decode.squashCycles                 452953                       # Number of cycles decode is squashing (Cycle)
system.cpu.decode.branchResolved              8429449                       # Number of times decode resolved a branch (Count)
system.cpu.decode.branchMispred                   304                       # Number of times decode detected a branch misprediction (Count)
system.cpu.decode.decodedInsts              158678014                       # Number of instructions handled by decode (Count)
system.cpu.decode.squashedInsts                  1584                       # Number of squashed instructions handled by decode (Count)
system.cpu.dtb_walker_cache.blockedCycles::no_mshrs            0                       # number of cycles access was blocked (Cycle)
system.cpu.dtb_walker_cache.blockedCycles::no_targets            0                       # number of cycles access was blocked (Cycle)
system.cpu.dtb_walker_cache.blockedCauses::no_mshrs            0                       # number of times access was blocked (Count)
system.cpu.dtb_walker_cache.blockedCauses::no_targets            0                       # number of times access was blocked (Count)
system.cpu.dtb_walker_cache.avgBlocked::no_mshrs          nan                       # average number of cycles each access was blocked ((Cycle/Count))
system.cpu.dtb_walker_cache.avgBlocked::no_targets          nan                       # average number of cycles each access was blocked ((Cycle/Count))
system.cpu.dtb_walker_cache.replacements            0                       # number of replacements (Count)
system.cpu.dtb_walker_cache.power_state.pwrStateResidencyTicks::UNDEFINED  25784224500                       # Cumulative time (in ticks) in various power states (Tick)
system.cpu.dtb_walker_cache.tags.tagsInUse            0                       # Average ticks per tags in use ((Tick/Count))
system.cpu.dtb_walker_cache.tags.totalRefs            0                       # Total number of references to valid blocks. (Count)
system.cpu.dtb_walker_cache.tags.sampledRefs            0                       # Sample count of references to valid blocks. (Count)
system.cpu.dtb_walker_cache.tags.avgRefs          nan                       # Average number of references to valid blocks. ((Count/Count))
system.cpu.dtb_walker_cache.tags.warmupTick            0                       # The tick when the warmup percentage was hit. (Tick)
system.cpu.dtb_walker_cache.tags.tagAccesses            0                       # Number of tag accesses (Count)
system.cpu.dtb_walker_cache.tags.dataAccesses            0                       # Number of data accesses (Count)
system.cpu.dtb_walker_cache.tags.power_state.pwrStateResidencyTicks::UNDEFINED  25784224500                       # Cumulative time (in ticks) in various power states (Tick)
system.cpu.fetch.icacheStallCycles           13157813                       # Number of cycles fetch is stalled on an Icache miss (Cycle)
system.cpu.fetch.insts                       86513375                       # Number of instructions fetch has processed (Count)
system.cpu.fetch.branches                    17304304                       # Number of branches that fetch encountered (Count)
system.cpu.fetch.predictedBranches           10720522                       # Number of branches that fetch has predicted taken (Count)
system.cpu.fetch.cycles                      35536168                       # Number of cycles fetch has run and was not squashing or blocked (Cycle)
system.cpu.fetch.squashCycles                  906484                       # Number of cycles fetch has spent squashing (Cycle)
system.cpu.fetch.miscStallCycles               290429                       # Number of cycles fetch has spent waiting on interrupts, or bad addresses, or out of MSHRs (Cycle)
system.cpu.fetch.pendingTrapStallCycles       2089274                       # Number of stall cycles due to pending traps (Cycle)
system.cpu.fetch.pendingQuiesceStallCycles          188                       # Number of stall cycles due to pending quiesce instructions (Cycle)
system.cpu.fetch.icacheWaitRetryStallCycles           21                       # Number of stall cycles due to full MSHR (Cycle)
system.cpu.fetch.cacheLines                  13030355                       # Number of cache lines fetched (Count)
system.cpu.fetch.icacheSquashes                 43408                       # Number of outstanding Icache misses that were squashed (Count)
system.cpu.fetch.nisnDist::samples           51527135                       # Number of instructions fetched each cycle (Total) (Count)
system.cpu.fetch.nisnDist::mean              3.110515                       # Number of instructions fetched each cycle (Total) (Count)
system.cpu.fetch.nisnDist::stdev             3.452755                       # Number of instructions fetched each cycle (Total) (Count)
system.cpu.fetch.nisnDist::underflows               0      0.00%      0.00% # Number of instructions fetched each cycle (Total) (Count)
system.cpu.fetch.nisnDist::0                 24534962     47.62%     47.62% # Number of instructions fetched each cycle (Total) (Count)
system.cpu.fetch.nisnDist::1                  2139131      4.15%     51.77% # Number of instructions fetched each cycle (Total) (Count)
system.cpu.fetch.nisnDist::2                  1645500      3.19%     54.96% # Number of instructions fetched each cycle (Total) (Count)
system.cpu.fetch.nisnDist::3                  2124302      4.12%     59.08% # Number of instructions fetched each cycle (Total) (Count)
system.cpu.fetch.nisnDist::4                  1727912      3.35%     62.44% # Number of instructions fetched each cycle (Total) (Count)
system.cpu.fetch.nisnDist::5                  2162856      4.20%     66.63% # Number of instructions fetched each cycle (Total) (Count)
system.cpu.fetch.nisnDist::6                  2419138      4.69%     71.33% # Number of instructions fetched each cycle (Total) (Count)
system.cpu.fetch.nisnDist::7                  1954528      3.79%     75.12% # Number of instructions fetched each cycle (Total) (Count)
system.cpu.fetch.nisnDist::8                 12818806     24.88%    100.00% # Number of instructions fetched each cycle (Total) (Count)
system.cpu.fetch.nisnDist::overflows                0      0.00%    100.00% # Number of instructions fetched each cycle (Total) (Count)
system.cpu.fetch.nisnDist::min_value                0                       # Number of instructions fetched each cycle (Total) (Count)
system.cpu.fetch.nisnDist::max_value                8                       # Number of instructions fetched each cycle (Total) (Count)
system.cpu.fetch.nisnDist::total             51527135                       # Number of instructions fetched each cycle (Total) (Count)
system.cpu.fetch.branchRate                  0.335560                       # Number of branch fetches per cycle (Ratio)
system.cpu.fetch.rate                        1.677642                       # Number of inst fetches per cycle ((Count/Cycle))
system.cpu.icache.demandHits::cpu.inst       13029619                       # number of demand (read+write) hits (Count)
system.cpu.icache.demandHits::total          13029619                       # number of demand (read+write) hits (Count)
system.cpu.icache.overallHits::cpu.inst      13029619                       # number of overall hits (Count)
system.cpu.icache.overallHits::total         13029619                       # number of overall hits (Count)
system.cpu.icache.demandMisses::cpu.inst          736                       # number of demand (read+write) misses (Count)
system.cpu.icache.demandMisses::total             736                       # number of demand (read+write) misses (Count)
system.cpu.icache.overallMisses::cpu.inst          736                       # number of overall misses (Count)
system.cpu.icache.overallMisses::total            736                       # number of overall misses (Count)
system.cpu.icache.demandMissLatency::cpu.inst     54866000                       # number of demand (read+write) miss ticks (Tick)
system.cpu.icache.demandMissLatency::total     54866000                       # number of demand (read+write) miss ticks (Tick)
system.cpu.icache.overallMissLatency::cpu.inst     54866000                       # number of overall miss ticks (Tick)
system.cpu.icache.overallMissLatency::total     54866000                       # number of overall miss ticks (Tick)
system.cpu.icache.demandAccesses::cpu.inst     13030355                       # number of demand (read+write) accesses (Count)
system.cpu.icache.demandAccesses::total      13030355                       # number of demand (read+write) accesses (Count)
system.cpu.icache.overallAccesses::cpu.inst     13030355                       # number of overall (read+write) accesses (Count)
system.cpu.icache.overallAccesses::total     13030355                       # number of overall (read+write) accesses (Count)
system.cpu.icache.demandMissRate::cpu.inst     0.000056                       # miss rate for demand accesses (Ratio)
system.cpu.icache.demandMissRate::total      0.000056                       # miss rate for demand accesses (Ratio)
system.cpu.icache.overallMissRate::cpu.inst     0.000056                       # miss rate for overall accesses (Ratio)
system.cpu.icache.overallMissRate::total     0.000056                       # miss rate for overall accesses (Ratio)
system.cpu.icache.demandAvgMissLatency::cpu.inst 74546.195652                       # average overall miss latency ((Cycle/Count))
system.cpu.icache.demandAvgMissLatency::total 74546.195652                       # average overall miss latency ((Cycle/Count))
system.cpu.icache.overallAvgMissLatency::cpu.inst 74546.195652                       # average overall miss latency ((Cycle/Count))
system.cpu.icache.overallAvgMissLatency::total 74546.195652                       # average overall miss latency ((Cycle/Count))
system.cpu.icache.blockedCycles::no_mshrs          589                       # number of cycles access was blocked (Cycle)
system.cpu.icache.blockedCycles::no_targets            0                       # number of cycles access was blocked (Cycle)
system.cpu.icache.blockedCauses::no_mshrs            2                       # number of times access was blocked (Count)
system.cpu.icache.blockedCauses::no_targets            0                       # number of times access was blocked (Count)
system.cpu.icache.avgBlocked::no_mshrs     294.500000                       # average number of cycles each access was blocked ((Cycle/Count))
system.cpu.icache.avgBlocked::no_targets          nan                       # average number of cycles each access was blocked ((Cycle/Count))
system.cpu.icache.writebacks::writebacks           96                       # number of writebacks (Count)
system.cpu.icache.writebacks::total                96                       # number of writebacks (Count)
system.cpu.icache.demandMshrHits::cpu.inst          201                       # number of demand (read+write) MSHR hits (Count)
system.cpu.icache.demandMshrHits::total           201                       # number of demand (read+write) MSHR hits (Count)
system.cpu.icache.overallMshrHits::cpu.inst          201                       # number of overall MSHR hits (Count)
system.cpu.icache.overallMshrHits::total          201                       # number of overall MSHR hits (Count)
system.cpu.icache.demandMshrMisses::cpu.inst          535                       # number of demand (read+write) MSHR misses (Count)
system.cpu.icache.demandMshrMisses::total          535                       # number of demand (read+write) MSHR misses (Count)
system.cpu.icache.overallMshrMisses::cpu.inst          535                       # number of overall MSHR misses (Count)
system.cpu.icache.overallMshrMisses::total          535                       # number of overall MSHR misses (Count)
system.cpu.icache.demandMshrMissLatency::cpu.inst     42128500                       # number of demand (read+write) MSHR miss ticks (Tick)
system.cpu.icache.demandMshrMissLatency::total     42128500                       # number of demand (read+write) MSHR miss ticks (Tick)
system.cpu.icache.overallMshrMissLatency::cpu.inst     42128500                       # number of overall MSHR miss ticks (Tick)
system.cpu.icache.overallMshrMissLatency::total     42128500                       # number of overall MSHR miss ticks (Tick)
system.cpu.icache.demandMshrMissRate::cpu.inst     0.000041                       # mshr miss ratio for demand accesses (Ratio)
system.cpu.icache.demandMshrMissRate::total     0.000041                       # mshr miss ratio for demand accesses (Ratio)
system.cpu.icache.overallMshrMissRate::cpu.inst     0.000041                       # mshr miss ratio for overall accesses (Ratio)
system.cpu.icache.overallMshrMissRate::total     0.000041                       # mshr miss ratio for overall accesses (Ratio)
system.cpu.icache.demandAvgMshrMissLatency::cpu.inst 78744.859813                       # average overall mshr miss latency ((Cycle/Count))
system.cpu.icache.demandAvgMshrMissLatency::total 78744.859813                       # average overall mshr miss latency ((Cycle/Count))
system.cpu.icache.overallAvgMshrMissLatency::cpu.inst 78744.859813                       # average overall mshr miss latency ((Cycle/Count))
system.cpu.icache.overallAvgMshrMissLatency::total 78744.859813                       # average overall mshr miss latency ((Cycle/Count))
system.cpu.icache.replacements                     96                       # number of replacements (Count)
system.cpu.icache.ReadReq.hits::cpu.inst     13029619                       # number of ReadReq hits (Count)
system.cpu.icache.ReadReq.hits::total        13029619                       # number of ReadReq hits (Count)
system.cpu.icache.ReadReq.misses::cpu.inst          736                       # number of ReadReq misses (Count)
system.cpu.icache.ReadReq.misses::total           736                       # number of ReadReq misses (Count)
system.cpu.icache.ReadReq.missLatency::cpu.inst     54866000                       # number of ReadReq miss ticks (Tick)
system.cpu.icache.ReadReq.missLatency::total     54866000                       # number of ReadReq miss ticks (Tick)
system.cpu.icache.ReadReq.accesses::cpu.inst     13030355                       # number of ReadReq accesses(hits+misses) (Count)
system.cpu.icache.ReadReq.accesses::total     13030355                       # number of ReadReq accesses(hits+misses) (Count)
system.cpu.icache.ReadReq.missRate::cpu.inst     0.000056                       # miss rate for ReadReq accesses (Ratio)
system.cpu.icache.ReadReq.missRate::total     0.000056                       # miss rate for ReadReq accesses (Ratio)
system.cpu.icache.ReadReq.avgMissLatency::cpu.inst 74546.195652                       # average ReadReq miss latency ((Tick/Count))
system.cpu.icache.ReadReq.avgMissLatency::total 74546.195652                       # average ReadReq miss latency ((Tick/Count))
system.cpu.icache.ReadReq.mshrHits::cpu.inst          201                       # number of ReadReq MSHR hits (Count)
system.cpu.icache.ReadReq.mshrHits::total          201                       # number of ReadReq MSHR hits (Count)
system.cpu.icache.ReadReq.mshrMisses::cpu.inst          535                       # number of ReadReq MSHR misses (Count)
system.cpu.icache.ReadReq.mshrMisses::total          535                       # number of ReadReq MSHR misses (Count)
system.cpu.icache.ReadReq.mshrMissLatency::cpu.inst     42128500                       # number of ReadReq MSHR miss ticks (Tick)
system.cpu.icache.ReadReq.mshrMissLatency::total     42128500                       # number of ReadReq MSHR miss ticks (Tick)
[...]
system.mem_ctrls.dram.perBankWrBursts::11            0                       # Per bank write bursts (Count)
system.mem_ctrls.dram.perBankWrBursts::12            0                       # Per bank write bursts (Count)
system.mem_ctrls.dram.perBankWrBursts::13            0                       # Per bank write bursts (Count)
system.mem_ctrls.dram.perBankWrBursts::14            0                       # Per bank write bursts (Count)
system.mem_ctrls.dram.perBankWrBursts::15            0                       # Per bank write bursts (Count)
system.mem_ctrls.dram.totQLat                 6451750                       # Total ticks spent queuing (Tick)
system.mem_ctrls.dram.totBusLat               3320000                       # Total ticks spent in databus transfers (Tick)
system.mem_ctrls.dram.totMemAccLat           18901750                       # Total ticks spent from burst creation until serviced by the DRAM (Tick)
system.mem_ctrls.dram.avgQLat                 9716.49                       # Average queueing delay per DRAM burst ((Tick/Count))
system.mem_ctrls.dram.avgBusLat               5000.00                       # Average bus latency per DRAM burst ((Tick/Count))
system.mem_ctrls.dram.avgMemAccLat           28466.49                       # Average memory access latency per DRAM burst ((Tick/Count))
system.mem_ctrls.dram.readRowHits                 506                       # Number of row buffer hits during reads (Count)
system.mem_ctrls.dram.writeRowHits                  0                       # Number of row buffer hits during writes (Count)
system.mem_ctrls.dram.readRowHitRate            76.20                       # Row buffer hit rate for reads (Ratio)
system.mem_ctrls.dram.writeRowHitRate             nan                       # Row buffer hit rate for writes (Ratio)
system.mem_ctrls.dram.bytesPerActivate::samples          149                       # Bytes accessed per row activation (Byte)
system.mem_ctrls.dram.bytesPerActivate::mean   274.040268                       # Bytes accessed per row activation (Byte)
system.mem_ctrls.dram.bytesPerActivate::gmean   167.730394                       # Bytes accessed per row activation (Byte)
system.mem_ctrls.dram.bytesPerActivate::stdev   297.042946                       # Bytes accessed per row activation (Byte)
system.mem_ctrls.dram.bytesPerActivate::0-127           56     37.58%     37.58% # Bytes accessed per row activation (Byte)
system.mem_ctrls.dram.bytesPerActivate::128-255           42     28.19%     65.77% # Bytes accessed per row activation (Byte)
system.mem_ctrls.dram.bytesPerActivate::256-383           11      7.38%     73.15% # Bytes accessed per row activation (Byte)
system.mem_ctrls.dram.bytesPerActivate::384-511           11      7.38%     80.54% # Bytes accessed per row activation (Byte)
system.mem_ctrls.dram.bytesPerActivate::512-639           10      6.71%     87.25% # Bytes accessed per row activation (Byte)
system.mem_ctrls.dram.bytesPerActivate::640-767            2      1.34%     88.59% # Bytes accessed per row activation (Byte)
system.mem_ctrls.dram.bytesPerActivate::768-895            2      1.34%     89.93% # Bytes accessed per row activation (Byte)
system.mem_ctrls.dram.bytesPerActivate::896-1023            2      1.34%     91.28% # Bytes accessed per row activation (Byte)
system.mem_ctrls.dram.bytesPerActivate::1024-1151           13      8.72%    100.00% # Bytes accessed per row activation (Byte)
system.mem_ctrls.dram.bytesPerActivate::total          149                       # Bytes accessed per row activation (Byte)
system.mem_ctrls.dram.bytesRead                 42496                       # Total number of bytes read from DRAM (Byte)
system.mem_ctrls.dram.bytesWritten                  0                       # Total number of bytes written to DRAM (Byte)
system.mem_ctrls.dram.avgRdBW                1.648140                       # Average DRAM read bandwidth in MiBytes/s ((Byte/Second))
system.mem_ctrls.dram.avgWrBW                       0                       # Average DRAM write bandwidth in MiBytes/s ((Byte/Second))
system.mem_ctrls.dram.peakBW                 12800.00                       # Theoretical peak bandwidth in MiByte/s ((Byte/Second))
system.mem_ctrls.dram.busUtil                    0.01                       # Data bus utilization in percentage (Ratio)
system.mem_ctrls.dram.busUtilRead                0.01                       # Data bus utilization in percentage for reads (Ratio)
system.mem_ctrls.dram.busUtilWrite               0.00                       # Data bus utilization in percentage for writes (Ratio)
system.mem_ctrls.dram.pageHitRate               76.20                       # Row buffer hit rate, read and write combined (Ratio)
system.mem_ctrls.dram.power_state.pwrStateResidencyTicks::UNDEFINED  25784224500                       # Cumulative time (in ticks) in various power states (Tick)
system.mem_ctrls.dram.rank0.actEnergy          735420                       # Energy for activate commands per rank (pJ) (Joule)
system.mem_ctrls.dram.rank0.preEnergy          364320                       # Energy for precharge commands per rank (pJ) (Joule)
system.mem_ctrls.dram.rank0.readEnergy        3420060                       # Energy for read commands per rank (pJ) (Joule)
system.mem_ctrls.dram.rank0.writeEnergy             0                       # Energy for write commands per rank (pJ) (Joule)
system.mem_ctrls.dram.rank0.refreshEnergy 2035073040.000000                       # Energy for refresh commands per rank (pJ) (Joule)
system.mem_ctrls.dram.rank0.actBackEnergy    397698120                       # Energy for active background per rank (pJ) (Joule)
system.mem_ctrls.dram.rank0.preBackEnergy   9566238720                       # Energy for precharge background per rank (pJ) (Joule)
system.mem_ctrls.dram.rank0.actPowerDownEnergy            0                       # Energy for active power-down per rank (pJ) (Joule)
system.mem_ctrls.dram.rank0.prePowerDownEnergy            0                       # Energy for precharge power-down per rank (pJ) (Joule)
system.mem_ctrls.dram.rank0.selfRefreshEnergy            0                       # Energy for self refresh per rank (pJ) (Joule)
system.mem_ctrls.dram.rank0.totalEnergy   12003529680                       # Total energy per rank (pJ) (Joule)
system.mem_ctrls.dram.rank0.averagePower   465.537743                       # Core power per rank (mW) (Watt)
system.mem_ctrls.dram.rank0.totalIdleTime            0                       # Total Idle time Per DRAM Rank (Tick)
system.mem_ctrls.dram.rank0.pwrStateTime::IDLE  24866399000                       # Time in different power states (Tick)
system.mem_ctrls.dram.rank0.pwrStateTime::REF    860860000                       # Time in different power states (Tick)
system.mem_ctrls.dram.rank0.pwrStateTime::SREF            0                       # Time in different power states (Tick)
system.mem_ctrls.dram.rank0.pwrStateTime::PRE_PDN            0                       # Time in different power states (Tick)
system.mem_ctrls.dram.rank0.pwrStateTime::ACT     56965500                       # Time in different power states (Tick)
system.mem_ctrls.dram.rank0.pwrStateTime::ACT_PDN            0                       # Time in different power states (Tick)
system.mem_ctrls.dram.rank1.actEnergy          392700                       # Energy for activate commands per rank (pJ) (Joule)
system.mem_ctrls.dram.rank1.preEnergy          201135                       # Energy for precharge commands per rank (pJ) (Joule)
system.mem_ctrls.dram.rank1.readEnergy        1320900                       # Energy for read commands per rank (pJ) (Joule)
system.mem_ctrls.dram.rank1.writeEnergy             0                       # Energy for write commands per rank (pJ) (Joule)
system.mem_ctrls.dram.rank1.refreshEnergy 2035073040.000000                       # Energy for refresh commands per rank (pJ) (Joule)
system.mem_ctrls.dram.rank1.actBackEnergy    390181530                       # Energy for active background per rank (pJ) (Joule)
system.mem_ctrls.dram.rank1.preBackEnergy   9572568480                       # Energy for precharge background per rank (pJ) (Joule)
system.mem_ctrls.dram.rank1.actPowerDownEnergy            0                       # Energy for active power-down per rank (pJ) (Joule)
system.mem_ctrls.dram.rank1.prePowerDownEnergy            0                       # Energy for precharge power-down per rank (pJ) (Joule)
system.mem_ctrls.dram.rank1.selfRefreshEnergy            0                       # Energy for self refresh per rank (pJ) (Joule)
system.mem_ctrls.dram.rank1.totalEnergy   11999737785                       # Total energy per rank (pJ) (Joule)
system.mem_ctrls.dram.rank1.averagePower   465.390680                       # Core power per rank (mW) (Watt)
system.mem_ctrls.dram.rank1.totalIdleTime            0                       # Total Idle time Per DRAM Rank (Tick)
system.mem_ctrls.dram.rank1.pwrStateTime::IDLE  24882923250                       # Time in different power states (Tick)
system.mem_ctrls.dram.rank1.pwrStateTime::REF    860860000                       # Time in different power states (Tick)
system.mem_ctrls.dram.rank1.pwrStateTime::SREF            0                       # Time in different power states (Tick)
system.mem_ctrls.dram.rank1.pwrStateTime::PRE_PDN            0                       # Time in different power states (Tick)
system.mem_ctrls.dram.rank1.pwrStateTime::ACT     40441250                       # Time in different power states (Tick)
system.mem_ctrls.dram.rank1.pwrStateTime::ACT_PDN            0                       # Time in different power states (Tick)
system.mem_ctrls.power_state.pwrStateResidencyTicks::UNDEFINED  25784224500                       # Cumulative time (in ticks) in various power states (Tick)
system.membus.transDist::ReadResp                 608                       # Transaction distribution (Count)
system.membus.transDist::ReadExReq                 55                       # Transaction distribution (Count)
system.membus.transDist::ReadExResp                55                       # Transaction distribution (Count)
system.membus.transDist::ReadSharedReq            609                       # Transaction distribution (Count)
system.membus.pktCount_system.l2.mem_side_port::system.mem_ctrls.port         1327                       # Packet count per connected requestor and responder (Count)
system.membus.pktCount_system.l2.mem_side_port::total         1327                       # Packet count per connected requestor and responder (Count)
system.membus.pktCount::total                    1327                       # Packet count per connected requestor and responder (Count)
system.membus.pktSize_system.l2.mem_side_port::system.mem_ctrls.port        42432                       # Cumulative packet size per connected requestor and responder (Byte)
system.membus.pktSize_system.l2.mem_side_port::total        42432                       # Cumulative packet size per connected requestor and responder (Byte)
system.membus.pktSize::total                    42432                       # Cumulative packet size per connected requestor and responder (Byte)
system.membus.snoops                                0                       # Total snoops (Count)
system.membus.snoopTraffic                          0                       # Total snoop traffic (Byte)
system.membus.snoopFanout::samples                664                       # Request fanout histogram (Count)
system.membus.snoopFanout::mean                     0                       # Request fanout histogram (Count)
system.membus.snoopFanout::stdev                    0                       # Request fanout histogram (Count)
system.membus.snoopFanout::underflows               0      0.00%      0.00% # Request fanout histogram (Count)
system.membus.snoopFanout::0                      664    100.00%    100.00% # Request fanout histogram (Count)
system.membus.snoopFanout::1                        0      0.00%    100.00% # Request fanout histogram (Count)
system.membus.snoopFanout::overflows                0      0.00%    100.00% # Request fanout histogram (Count)
system.membus.snoopFanout::min_value                0                       # Request fanout histogram (Count)
system.membus.snoopFanout::max_value                0                       # Request fanout histogram (Count)
system.membus.snoopFanout::total                  664                       # Request fanout histogram (Count)
system.membus.power_state.pwrStateResidencyTicks::UNDEFINED  25784224500                       # Cumulative time (in ticks) in various power states (Tick)
system.membus.reqLayer2.occupancy              807000                       # Layer occupancy (ticks) (Tick)
system.membus.reqLayer2.utilization               0.0                       # Layer utilization (Ratio)
system.membus.respLayer1.occupancy            3530250                       # Layer occupancy (ticks) (Tick)
system.membus.respLayer1.utilization              0.0                       # Layer utilization (Ratio)
system.membus.snoop_filter.totRequests            664                       # Total number of requests made to the snoop filter. (Count)
system.membus.snoop_filter.hitSingleRequests            0                       # Number of requests hitting in the snoop filter with a single holder of the requested data. (Count)
system.membus.snoop_filter.hitMultiRequests            0                       # Number of requests hitting in the snoop filter with multiple (>1) holders of the requested data. (Count)
system.membus.snoop_filter.totSnoops                0                       # Total number of snoops made to the snoop filter. (Count)
system.membus.snoop_filter.hitSingleSnoops            0                       # Number of snoops hitting in the snoop filter with a single holder of the requested data. (Count)
system.membus.snoop_filter.hitMultiSnoops            0                       # Number of snoops hitting in the snoop filter with multiple (>1) holders of the requested data. (Count)
system.tol2bus.transDist::ReadResp                619                       # Transaction distribution (Count)
system.tol2bus.transDist::WritebackClean           96                       # Transaction distribution (Count)
system.tol2bus.transDist::CleanEvict                1                       # Transaction distribution (Count)
system.tol2bus.transDist::UpgradeReq                5                       # Transaction distribution (Count)
system.tol2bus.transDist::UpgradeResp               5                       # Transaction distribution (Count)
system.tol2bus.transDist::ReadExReq                55                       # Transaction distribution (Count)
system.tol2bus.transDist::ReadExResp               55                       # Transaction distribution (Count)
system.tol2bus.transDist::ReadCleanReq            534                       # Transaction distribution (Count)
system.tol2bus.transDist::ReadSharedReq            86                       # Transaction distribution (Count)
system.tol2bus.pktCount_system.cpu.icache.mem_side_port::system.l2.cpu_side_port         1159                       # Packet count per connected requestor and responder (Count)
system.tol2bus.pktCount_system.cpu.dcache.mem_side_port::system.l2.cpu_side_port          293                       # Packet count per connected requestor and responder (Count)
system.tol2bus.pktCount::total                   1452                       # Packet count per connected requestor and responder (Count)
system.tol2bus.pktSize_system.cpu.icache.mem_side_port::system.l2.cpu_side_port        40000                       # Cumulative packet size per connected requestor and responder (Byte)
system.tol2bus.pktSize_system.cpu.dcache.mem_side_port::system.l2.cpu_side_port         9024                       # Cumulative packet size per connected requestor and responder (Byte)
system.tol2bus.pktSize::total                   49024                       # Cumulative packet size per connected requestor and responder (Byte)
system.tol2bus.snoops                               4                       # Total snoops (Count)
system.tol2bus.snoopTraffic                       256                       # Total snoop traffic (Byte)
system.tol2bus.snoopFanout::samples               680                       # Request fanout histogram (Count)
system.tol2bus.snoopFanout::mean             0.017647                       # Request fanout histogram (Count)
system.tol2bus.snoopFanout::stdev            0.131762                       # Request fanout histogram (Count)
system.tol2bus.snoopFanout::underflows              0      0.00%      0.00% # Request fanout histogram (Count)
system.tol2bus.snoopFanout::0                     668     98.24%     98.24% # Request fanout histogram (Count)
system.tol2bus.snoopFanout::1                      12      1.76%    100.00% # Request fanout histogram (Count)
system.tol2bus.snoopFanout::2                       0      0.00%    100.00% # Request fanout histogram (Count)
system.tol2bus.snoopFanout::3                       0      0.00%    100.00% # Request fanout histogram (Count)
system.tol2bus.snoopFanout::4                       0      0.00%    100.00% # Request fanout histogram (Count)
system.tol2bus.snoopFanout::overflows               0      0.00%    100.00% # Request fanout histogram (Count)
system.tol2bus.snoopFanout::min_value               0                       # Request fanout histogram (Count)
system.tol2bus.snoopFanout::max_value               1                       # Request fanout histogram (Count)
system.tol2bus.snoopFanout::total                 680                       # Request fanout histogram (Count)
system.tol2bus.power_state.pwrStateResidencyTicks::UNDEFINED  25784224500                       # Cumulative time (in ticks) in various power states (Tick)
system.tol2bus.reqLayer0.occupancy             484500                       # Layer occupancy (ticks) (Tick)
system.tol2bus.reqLayer0.utilization              0.0                       # Layer utilization (Ratio)
system.tol2bus.respLayer0.occupancy            799500                       # Layer occupancy (ticks) (Tick)
system.tol2bus.respLayer0.utilization             0.0                       # Layer utilization (Ratio)
system.tol2bus.respLayer1.occupancy            214499                       # Layer occupancy (ticks) (Tick)
system.tol2bus.respLayer1.utilization             0.0                       # Layer utilization (Ratio)
system.tol2bus.snoop_filter.totRequests           777                       # Total number of requests made to the snoop filter. (Count)
system.tol2bus.snoop_filter.hitSingleRequests          104                       # Number of requests hitting in the snoop filter with a single holder of the requested data. (Count)
system.tol2bus.snoop_filter.hitMultiRequests            5                       # Number of requests hitting in the snoop filter with multiple (>1) holders of the requested data. (Count)
system.tol2bus.snoop_filter.totSnoops               0                       # Total number of snoops made to the snoop filter. (Count)
system.tol2bus.snoop_filter.hitSingleSnoops            0                       # Number of snoops hitting in the snoop filter with a single holder of the requested data. (Count)
system.tol2bus.snoop_filter.hitMultiSnoops            0                       # Number of snoops hitting in the snoop filter with multiple (>1) holders of the requested data. (Count)
system.voltage_domain.voltage                       1                       # Voltage in Volts (Volt)
system.workload.inst.arm                            0                       # number of arm instructions executed (Count)
system.workload.inst.quiesce                        0                       # number of quiesce instructions executed (Count)

---------- End Simulation Statistics   ----------
