
---------- Begin Simulation Statistics ----------
simSeconds                                   0.002042                       # Number of seconds simulated (Second)
simTicks                                   2041884500                       # Number of ticks simulated (Tick)
finalTick                                  2041884500                       # Number of ticks from beginning of simulation (restored from checkpoints and never reset) (Tick)
simFreq                                  1000000000000                       # The number of ticks per simulated second ((Tick/Second))
hostSeconds                                     25.03                       # Real time elapsed on the host (Second)
hostTickRate                                 81574890                       # The number of ticks simulated per host second (ticks/s) ((Tick/Second))
hostMemory                                    2244592                       # Number of bytes of host memory used (Byte)
simInsts                                      5989129                       # Number of instructions simulated (Count)
simOps                                       11493089                       # Number of ops (including micro ops) simulated (Count)
hostInstRate                                   239269                       # Simulator instruction rate (inst/s) ((Count/Second))
hostOpRate                                     459156                       # Simulator op (including micro ops) rate (op/s) ((Count/Second))
system.clk_domain.clock                          1000                       # Clock period in ticks (Tick)
system.cpu.numCycles                          4083770                       # Number of cpu cycles simulated (Cycle)
system.cpu.numWorkItemsStarted                      0                       # Number of work items this cpu started (Count)
system.cpu.numWorkItemsCompleted                    0                       # Number of work items this cpu completed (Count)
system.cpu.instsAdded                        13250754                       # Number of instructions added to the IQ (excludes non-spec) (Count)
system.cpu.nonSpecInstsAdded                    33063                       # Number of non-speculative instructions added to the IQ (Count)
system.cpu.instsIssued                       12600892                       # Number of instructions issued (Count)
system.cpu.squashedInstsIssued                  10845                       # Number of squashed instructions issued (Count)
system.cpu.squashedInstsExamined              1790706                       # Number of squashed instructions iterated over during squash; mainly for profiling (Count)
system.cpu.squashedOperandsExamined           2698733                       # Number of squashed operands that are examined and possibly removed from graph (Count)
system.cpu.squashedNonSpecRemoved               25282                       # Number of squashed non-spec instructions that were removed (Count)
system.cpu.numIssuedDist::samples             3942971                       # Number of insts issued each cycle (Count)
system.cpu.numIssuedDist::mean               3.195786                       # Number of insts issued each cycle (Count)
system.cpu.numIssuedDist::stdev              2.443443                       # Number of insts issued each cycle (Count)
system.cpu.numIssuedDist::underflows                0      0.00%      0.00% # Number of insts issued each cycle (Count)
system.cpu.numIssuedDist::0                    891665     22.61%     22.61% # Number of insts issued each cycle (Count)
system.cpu.numIssuedDist::1                    311775      7.91%     30.52% # Number of insts issued each cycle (Count)
system.cpu.numIssuedDist::2                    425168     10.78%     41.30% # Number of insts issued each cycle (Count)
system.cpu.numIssuedDist::3                    531365     13.48%     54.78% # Number of insts issued each cycle (Count)
system.cpu.numIssuedDist::4                    486569     12.34%     67.12% # Number of insts issued each cycle (Count)
system.cpu.numIssuedDist::5                    375334      9.52%     76.64% # Number of insts issued each cycle (Count)
system.cpu.numIssuedDist::6                    551476     13.99%     90.63% # Number of insts issued each cycle (Count)
system.cpu.numIssuedDist::7                    244068      6.19%     96.82% # Number of insts issued each cycle (Count)
system.cpu.numIssuedDist::8                    125551      3.18%    100.00% # Number of insts issued each cycle (Count)
system.cpu.numIssuedDist::overflows                 0      0.00%    100.00% # Number of insts issued each cycle (Count)
system.cpu.numIssuedDist::min_value                 0                       # Number of insts issued each cycle (Count)
system.cpu.numIssuedDist::max_value                 8                       # Number of insts issued each cycle (Count)
system.cpu.numIssuedDist::total               3942971                       # Number of insts issued each cycle (Count)
system.cpu.statFuBusy::No_OpClass                   0      0.00%      0.00% # attempts to use FU when none available (Count)
system.cpu.statFuBusy::IntAlu                  154127     81.65%     81.65% # attempts to use FU when none available (Count)
system.cpu.statFuBusy::IntMult                      0      0.00%     81.65% # attempts to use FU when none available (Count)
system.cpu.statFuBusy::IntDiv                       0      0.00%     81.65% # attempts to use FU when none available (Count)
system.cpu.statFuBusy::FloatAdd                     0      0.00%     81.65% # attempts to use FU when none available (Count)
system.cpu.statFuBusy::FloatCmp                     0      0.00%     81.65% # attempts to use FU when none available (Count)
system.cpu.statFuBusy::FloatCvt                     0      0.00%     81.65% # attempts to use FU when none available (Count)
system.cpu.statFuBusy::FloatMult                    0      0.00%     81.65% # attempts to use FU when none available (Count)
system.cpu.statFuBusy::FloatMultAcc                 0      0.00%     81.65% # attempts to use FU when none available (Count)
system.cpu.statFuBusy::FloatDiv                     0      0.00%     81.65% # attempts to use FU when none available (Count)
system.cpu.statFuBusy::FloatMisc                    0      0.00%     81.65% # attempts to use FU when none available (Count)
system.cpu.statFuBusy::FloatSqrt                    0      0.00%     81.65% # attempts to use FU when none available (Count)
system.cpu.statFuBusy::SimdAdd                      0      0.00%     81.65% # attempts to use FU when none available (Count)
system.cpu.statFuBusy::SimdAddAcc                   0      0.00%     81.65% # attempts to use FU when none available (Count)
system.cpu.statFuBusy::SimdAlu                      0      0.00%     81.65% # attempts to use FU when none available (Count)
system.cpu.statFuBusy::SimdCmp                      0      0.00%     81.65% # attempts to use FU when none available (Count)
system.cpu.statFuBusy::SimdCvt                      0      0.00%     81.65% # attempts to use FU when none available (Count)
system.cpu.statFuBusy::SimdMisc                     0      0.00%     81.65% # attempts to use FU when none available (Count)
system.cpu.statFuBusy::SimdMult                     0      0.00%     81.65% # attempts to use FU when none available (Count)
system.cpu.statFuBusy::SimdMultAcc                  0      0.00%     81.65% # attempts to use FU when none available (Count)
system.cpu.statFuBusy::SimdShift                    0      0.00%     81.65% # attempts to use FU when none available (Count)
system.cpu.statFuBusy::SimdShiftAcc                 0      0.00%     81.65% # attempts to use FU when none available (Count)
system.cpu.statFuBusy::SimdDiv                      0      0.00%     81.65% # attempts to use FU when none available (Count)
system.cpu.statFuBusy::SimdSqrt                     0      0.00%     81.65% # attempts to use FU when none available (Count)
system.cpu.statFuBusy::SimdFloatAdd                 0      0.00%     81.65% # attempts to use FU when none available (Count)
system.cpu.statFuBusy::SimdFloatAlu                 0      0.00%     81.65% # attempts to use FU when none available (Count)
system.cpu.statFuBusy::SimdFloatCmp                 0      0.00%     81.65% # attempts to use FU when none available (Count)
system.cpu.statFuBusy::SimdFloatCvt                 0      0.00%     81.65% # attempts to use FU when none available (Count)
system.cpu.statFuBusy::SimdFloatDiv                 0      0.00%     81.65% # attempts to use FU when none available (Count)
system.cpu.statFuBusy::SimdFloatMisc                0      0.00%     81.65% # attempts to use FU when none available (Count)
system.cpu.statFuBusy::SimdFloatMult                0      0.00%     81.65% # attempts to use FU when none available (Count)
system.cpu.statFuBusy::SimdFloatMultAcc             0      0.00%     81.65% # attempts to use FU when none available (Count)
system.cpu.statFuBusy::SimdFloatSqrt                0      0.00%     81.65% # attempts to use FU when none available (Count)
system.cpu.statFuBusy::SimdReduceAdd                0      0.00%     81.65% # attempts to use FU when none available (Count)
system.cpu.statFuBusy::SimdReduceAlu                0      0.00%     81.65% # attempts to use FU when none available (Count)
system.cpu.statFuBusy::SimdReduceCmp                0      0.00%     81.65% # attempts to use FU when none available (Count)
system.cpu.statFuBusy::SimdFloatReduceAdd            0      0.00%     81.65% # attempts to use FU when none available (Count)
system.cpu.statFuBusy::SimdFloatReduceCmp            0      0.00%     81.65% # attempts to use FU when none available (Count)
system.cpu.statFuBusy::SimdAes                      0      0.00%     81.65% # attempts to use FU when none available (Count)
system.cpu.statFuBusy::SimdAesMix                   0      0.00%     81.65% # attempts to use FU when none available (Count)
system.cpu.statFuBusy::SimdSha1Hash                 0      0.00%     81.65% # attempts to use FU when none available (Count)
system.cpu.statFuBusy::SimdSha1Hash2                0      0.00%     81.65% # attempts to use FU when none available (Count)
system.cpu.statFuBusy::SimdSha256Hash               0      0.00%     81.65% # attempts to use FU when none available (Count)
system.cpu.statFuBusy::SimdSha256Hash2              0      0.00%     81.65% # attempts to use FU when none available (Count)
system.cpu.statFuBusy::SimdShaSigma2                0      0.00%     81.65% # attempts to use FU when none available (Count)
system.cpu.statFuBusy::SimdShaSigma3                0      0.00%     81.65% # attempts to use FU when none available (Count)
system.cpu.statFuBusy::SimdPredAlu                  0      0.00%     81.65% # attempts to use FU when none available (Count)
system.cpu.statFuBusy::MemRead                  27624     14.63%     96.29% # attempts to use FU when none available (Count)
system.cpu.statFuBusy::MemWrite                  7003      3.71%    100.00% # attempts to use FU when none available (Count)
system.cpu.statFuBusy::FloatMemRead                 0      0.00%    100.00% # attempts to use FU when none available (Count)
system.cpu.statFuBusy::FloatMemWrite                0      0.00%    100.00% # attempts to use FU when none available (Count)
system.cpu.statFuBusy::IprAccess                    0      0.00%    100.00% # attempts to use FU when none available (Count)
system.cpu.statFuBusy::InstPrefetch                 0      0.00%    100.00% # attempts to use FU when none available (Count)
system.cpu.statIssuedInstType_0::No_OpClass         6757      0.05%      0.05% # Number of instructions issued per FU type, per thread (Count)
system.cpu.statIssuedInstType_0::IntAlu       9703085     77.00%     77.06% # Number of instructions issued per FU type, per thread (Count)
system.cpu.statIssuedInstType_0::IntMult          224      0.00%     77.06% # Number of instructions issued per FU type, per thread (Count)
system.cpu.statIssuedInstType_0::IntDiv          1188      0.01%     77.07% # Number of instructions issued per FU type, per thread (Count)
system.cpu.statIssuedInstType_0::FloatAdd           68      0.00%     77.07% # Number of instructions issued per FU type, per thread (Count)
system.cpu.statIssuedInstType_0::FloatCmp          100      0.00%     77.07% # Number of instructions issued per FU type, per thread (Count)
system.cpu.statIssuedInstType_0::FloatCvt            0      0.00%     77.07% # Number of instructions issued per FU type, per thread (Count)
system.cpu.statIssuedInstType_0::FloatMult            0      0.00%     77.07% # Number of instructions issued per FU type, per thread (Count)
system.cpu.statIssuedInstType_0::FloatMultAcc            0      0.00%     77.07% # Number of instructions issued per FU type, per thread (Count)
system.cpu.statIssuedInstType_0::FloatDiv            0      0.00%     77.07% # Number of instructions issued per FU type, per thread (Count)
system.cpu.statIssuedInstType_0::FloatMisc            0      0.00%     77.07% # Number of instructions issued per FU type, per thread (Count)
system.cpu.statIssuedInstType_0::FloatSqrt            0      0.00%     77.07% # Number of instructions issued per FU type, per thread (Count)
system.cpu.statIssuedInstType_0::SimdAdd            0      0.00%     77.07% # Number of instructions issued per FU type, per thread (Count)
system.cpu.statIssuedInstType_0::SimdAddAcc            0      0.00%     77.07% # Number of instructions issued per FU type, per thread (Count)
system.cpu.statIssuedInstType_0::SimdAlu            0      0.00%     77.07% # Number of instructions issued per FU type, per thread (Count)
system.cpu.statIssuedInstType_0::SimdCmp            0      0.00%     77.07% # Number of instructions issued per FU type, per thread (Count)
system.cpu.statIssuedInstType_0::SimdCvt            0      0.00%     77.07% # Number of instructions issued per FU type, per thread (Count)
system.cpu.statIssuedInstType_0::SimdMisc            0      0.00%     77.07% # Number of instructions issued per FU type, per thread (Count)
system.cpu.statIssuedInstType_0::SimdMult            0      0.00%     77.07% # Number of instructions issued per FU type, per thread (Count)
system.cpu.statIssuedInstType_0::SimdMultAcc            0      0.00%     77.07% # Number of instructions issued per FU type, per thread (Count)
system.cpu.statIssuedInstType_0::SimdShift            0      0.00%     77.07% # Number of instructions issued per FU type, per thread (Count)
system.cpu.statIssuedInstType_0::SimdShiftAcc            0      0.00%     77.07% # Number of instructions issued per FU type, per thread (Count)
system.cpu.statIssuedInstType_0::SimdDiv            0      0.00%     77.07% # Number of instructions issued per FU type, per thread (Count)
system.cpu.statIssuedInstType_0::SimdSqrt            0      0.00%     77.07% # Number of instructions issued per FU type, per thread (Count)
system.cpu.statIssuedInstType_0::SimdFloatAdd            0      0.00%     77.07% # Number of instructions issued per FU type, per thread (Count)
system.cpu.statIssuedInstType_0::SimdFloatAlu            0      0.00%     77.07% # Number of instructions issued per FU type, per thread (Count)
system.cpu.statIssuedInstType_0::SimdFloatCmp            0      0.00%     77.07% # Number of instructions issued per FU type, per thread (Count)
system.cpu.statIssuedInstType_0::SimdFloatCvt            0      0.00%     77.07% # Number of instructions issued per FU type, per thread (Count)
system.cpu.statIssuedInstType_0::SimdFloatDiv            0      0.00%     77.07% # Number of instructions issued per FU type, per thread (Count)
system.cpu.statIssuedInstType_0::SimdFloatMisc            0      0.00%     77.07% # Number of instructions issued per FU type, per thread (Count)
system.cpu.statIssuedInstType_0::SimdFloatMult            0      0.00%     77.07% # Number of instructions issued per FU type, per thread (Count)
system.cpu.statIssuedInstType_0::SimdFloatMultAcc            0      0.00%     77.07% # Number of instructions issued per FU type, per thread (Count)
system.cpu.statIssuedInstType_0::SimdFloatSqrt            0      0.00%     77.07% # Number of instructions issued per FU type, per thread (Count)
system.cpu.statIssuedInstType_0::SimdReduceAdd            0      0.00%     77.07% # Number of instructions issued per FU type, per thread (Count)
system.cpu.statIssuedInstType_0::SimdReduceAlu            0      0.00%     77.07% # Number of instructions issued per FU type, per thread (Count)
system.cpu.statIssuedInstType_0::SimdReduceCmp            0      0.00%     77.07% # Number of instructions issued per FU type, per thread (Count)
system.cpu.statIssuedInstType_0::SimdFloatReduceAdd            0      0.00%     77.07% # Number of instructions issued per FU type, per thread (Count)
system.cpu.statIssuedInstType_0::SimdFloatReduceCmp            0      0.00%     77.07% # Number of instructions issued per FU type, per thread (Count)
system.cpu.statIssuedInstType_0::SimdAes            0      0.00%     77.07% # Number of instructions issued per FU type, per thread (Count)
system.cpu.statIssuedInstType_0::SimdAesMix            0      0.00%     77.07% # Number of instructions issued per FU type, per thread (Count)
system.cpu.statIssuedInstType_0::SimdSha1Hash            0      0.00%     77.07% # Number of instructions issued per FU type, per thread (Count)
system.cpu.statIssuedInstType_0::SimdSha1Hash2            0      0.00%     77.07% # Number of instructions issued per FU type, per thread (Count)
system.cpu.statIssuedInstType_0::SimdSha256Hash            0      0.00%     77.07% # Number of instructions issued per FU type, per thread (Count)
system.cpu.statIssuedInstType_0::SimdSha256Hash2            0      0.00%     77.07% # Number of instructions issued per FU type, per thread (Count)
system.cpu.statIssuedInstType_0::SimdShaSigma2            0      0.00%     77.07% # Number of instructions issued per FU type, per thread (Count)
system.cpu.statIssuedInstType_0::SimdShaSigma3            0      0.00%     77.07% # Number of instructions issued per FU type, per thread (Count)
system.cpu.statIssuedInstType_0::SimdPredAlu            0      0.00%     77.07% # Number of instructions issued per FU type, per thread (Count)
system.cpu.statIssuedInstType_0::MemRead      1835690     14.57%     91.64% # Number of instructions issued per FU type, per thread (Count)
system.cpu.statIssuedInstType_0::MemWrite      1053069      8.36%     99.99% # Number of instructions issued per FU type, per thread (Count)
system.cpu.statIssuedInstType_0::FloatMemRead          461      0.00%    100.00% # Number of instructions issued per FU type, per thread (Count)
system.cpu.statIssuedInstType_0::FloatMemWrite          250      0.00%    100.00% # Number of instructions issued per FU type, per thread (Count)
system.cpu.statIssuedInstType_0::IprAccess            0      0.00%    100.00% # Number of instructions issued per FU type, per thread (Count)
system.cpu.statIssuedInstType_0::InstPrefetch            0      0.00%    100.00% # Number of instructions issued per FU type, per thread (Count)
system.cpu.statIssuedInstType_0::total       12600892                       # Number of instructions issued per FU type, per thread (Count)
system.cpu.issueRate                         3.085603                       # Inst issue rate ((Count/Cycle))
system.cpu.fuBusy                              188754                       # FU busy when requested (Count)
system.cpu.fuBusyRate                        0.014979                       # FU busy rate (busy events/executed inst) ((Count/Count))
system.cpu.intInstQueueReads                 29341090                       # Number of integer instruction queue reads (Count)
system.cpu.intInstQueueWrites                15078616                       # Number of integer instruction queue writes (Count)
system.cpu.intInstQueueWakeupAccesses        12475758                       # Number of integer instruction queue wakeup accesses (Count)
system.cpu.fpInstQueueReads                      3264                       # Number of floating instruction queue reads (Count)
system.cpu.fpInstQueueWrites                     1847                       # Number of floating instruction queue writes (Count)
system.cpu.fpInstQueueWakeupAccesses             1545                       # Number of floating instruction queue wakeup accesses (Count)
system.cpu.vecInstQueueReads                        0                       # Number of vector instruction queue reads (Count)
system.cpu.vecInstQueueWrites                       0                       # Number of vector instruction queue writes (Count)
system.cpu.vecInstQueueWakeupAccesses               0                       # Number of vector instruction queue wakeup accesses (Count)
system.cpu.intAluAccesses                    12781257                       # Number of integer alu accesses (Count)
system.cpu.fpAluAccesses                         1632                       # Number of floating point alu accesses (Count)
system.cpu.vecAluAccesses                           0                       # Number of vector alu accesses (Count)
system.cpu.idleCycles                               0                       # Number of cycles IEW is idle (Cycle)
system.cpu.squashCycles                         40255                       # Number of cycles IEW is squashing (Cycle)
system.cpu.blockCycles                         258393                       # Number of cycles IEW is blocking (Cycle)
system.cpu.unblockCycles                        15869                       # Number of cycles IEW is unblocking (Cycle)
system.cpu.dispatchedInsts                   13283817                       # Number of instructions dispatched to IQ (Count)
system.cpu.dispSquashedInsts                     1852                       # Number of squashed instructions skipped by dispatch (Count)
system.cpu.dispLoadInsts                      1960164                       # Number of dispatched load instructions (Count)
system.cpu.dispStoreInsts                     1142557                       # Number of dispatched store instructions (Count)
system.cpu.dispNonSpecInsts                     11984                       # Number of dispatched non-speculative instructions (Count)
system.cpu.iqFullEvents                          5040                       # Number of times the IQ has become full, causing a stall (Count)
system.cpu.lsqFullEvents                         8619                       # Number of times the LSQ has become full, causing a stall (Count)
system.cpu.memOrderViolationEvents               5996                       # Number of memory order violations (Count)
system.cpu.predictedTakenIncorrect              16563                       # Number of branches that were predicted taken incorrectly (Count)
system.cpu.predictedNotTakenIncorrect           25010                       # Number of branches that were predicted not taken incorrectly (Count)
system.cpu.branchMispredicts                    41573                       # Number of branch mispredicts detected at execute (Count)
system.cpu.numInsts                          12518011                       # Number of executed instructions (Count)
system.cpu.numLoadInsts                       1817934                       # Number of load instructions executed (Count)
system.cpu.numSquashedInsts                     82881                       # Number of squashed instructions skipped in execute (Count)
system.cpu.numSwp                                   0                       # Number of swp insts executed (Count)
system.cpu.numNop                                   0                       # Number of nop insts executed (Count)
system.cpu.numRefs                            2859716                       # Number of memory reference insts executed (Count)
system.cpu.numBranches                        1395243                       # Number of branches executed (Count)
system.cpu.numStoreInsts                      1041782                       # Number of stores executed (Count)
system.cpu.numRate                           3.065308                       # Inst execution rate ((Count/Cycle))
system.cpu.instsToCommit                     12497385                       # Cumulative count of insts sent to commit (Count)
system.cpu.writebackCount                    12477303                       # Cumulative count of insts written-back (Count)
system.cpu.producerInst                       9489018                       # Number of instructions producing a value (Count)
system.cpu.consumerInst                      15924204                       # Number of instructions consuming a value (Count)
system.cpu.wbRate                            3.055339                       # Insts written-back per cycle ((Count/Cycle))
system.cpu.wbFanout                          0.595886                       # Average fanout of values written-back ((Count/Count))
system.cpu.timesIdled                            2470                       # Number of times that the entire CPU went into an idle state and unscheduled itself (Count)
system.cpu.idleCycles                          140799                       # Total number of cycles that the CPU has spent unscheduled due to idling (Cycle)
system.cpu.committedInsts                     5989129                       # Number of Instructions Simulated (Count)
system.cpu.committedOps                      11493089                       # Number of Ops (including micro ops) Simulated (Count)
system.cpu.cpi                               0.681864                       # CPI: Cycles Per Instruction ((Cycle/Count))
system.cpu.totalCpi                          0.681864                       # CPI: Total CPI of All Threads ((Cycle/Count))
system.cpu.ipc                               1.466569                       # IPC: Instructions Per Cycle ((Count/Cycle))
system.cpu.totalIpc                          1.466569                       # IPC: Total IPC of All Threads ((Count/Cycle))
system.cpu.intRegfileReads                   18308909                       # Number of integer regfile reads (Count)
system.cpu.intRegfileWrites                  10018487                       # Number of integer regfile writes (Count)
system.cpu.fpRegfileReads                        1976                       # Number of floating regfile reads (Count)
system.cpu.fpRegfileWrites                       1195                       # Number of floating regfile writes (Count)
system.cpu.ccRegfileReads                     6672424                       # number of cc regfile reads (Count)
system.cpu.ccRegfileWrites                    4167553                       # number of cc regfile writes (Count)
system.cpu.miscRegfileReads                   5568856                       # number of misc regfile reads (Count)
system.cpu.miscRegfileWrites                     1096                       # number of misc regfile writes (Count)
system.cpu.MemDepUnit__0.insertedLoads        1960164                       # Number of loads inserted to the mem dependence unit. (Count)
system.cpu.MemDepUnit__0.insertedStores       1142557                       # Number of stores inserted to the mem dependence unit. (Count)
system.cpu.MemDepUnit__0.conflictingLoads       452117                       # Number of conflicting loads. (Count)
system.cpu.MemDepUnit__0.conflictingStores       291869                       # Number of conflicting stores. (Count)
system.cpu.MemDepUnit__1.insertedLoads              0                       # Number of loads inserted to the mem dependence unit. (Count)
system.cpu.MemDepUnit__1.insertedStores             0                       # Number of stores inserted to the mem dependence unit. (Count)
system.cpu.MemDepUnit__1.conflictingLoads            0                       # Number of conflicting loads. (Count)
system.cpu.MemDepUnit__1.conflictingStores            0                       # Number of conflicting stores. (Count)
system.cpu.MemDepUnit__2.insertedLoads              0                       # Number of loads inserted to the mem dependence unit. (Count)
system.cpu.MemDepUnit__2.insertedStores             0                       # Number of stores inserted to the mem dependence unit. (Count)
system.cpu.MemDepUnit__2.conflictingLoads            0                       # Number of conflicting loads. (Count)
system.cpu.MemDepUnit__2.conflictingStores            0                       # Number of conflicting stores. (Count)
system.cpu.MemDepUnit__3.insertedLoads              0                       # Number of loads inserted to the mem dependence unit. (Count)
system.cpu.MemDepUnit__3.insertedStores             0                       # Number of stores inserted to the mem dependence unit. (Count)
system.cpu.MemDepUnit__3.conflictingLoads            0                       # Number of conflicting loads. (Count)
system.cpu.MemDepUnit__3.conflictingStores            0                       # Number of conflicting stores. (Count)
system.cpu.branchPred.lookups                 1628135                       # Number of BP lookups (Count)
system.cpu.branchPred.condPredicted           1267630                       # Number of conditional branches predicted (Count)
system.cpu.branchPred.condIncorrect             41979                       # Number of conditional branches incorrect (Count)
system.cpu.branchPred.BTBLookups               729111                       # Number of BTB lookups (Count)
system.cpu.branchPred.BTBHits                  719247                       # Number of BTB hits (Count)
system.cpu.branchPred.BTBHitRatio            0.986471                       # BTB Hit Ratio (Ratio)
system.cpu.branchPred.RASUsed                  115280                       # Number of times the RAS was used to get a target. (Count)
system.cpu.branchPred.RASIncorrect                100                       # Number of incorrect RAS predictions. (Count)
system.cpu.branchPred.indirectLookups           20404                       # Number of indirect predictor lookups. (Count)
system.cpu.branchPred.indirectHits              18242                       # Number of indirect target hits. (Count)
system.cpu.branchPred.indirectMisses             2162                       # Number of indirect misses. (Count)
system.cpu.branchPred.indirectMispredicted         3245                       # Number of mispredicted indirect branches. (Count)
system.cpu.branchPred.perceptron.lookups            0                       # Number of BP lookups (Count)
system.cpu.branchPred.perceptron.condPredicted            0                       # Number of conditional branches predicted (Count)
system.cpu.branchPred.perceptron.condIncorrect            0                       # Number of conditional branches incorrect (Count)
system.cpu.branchPred.perceptron.BTBLookups            0                       # Number of BTB lookups (Count)
system.cpu.branchPred.perceptron.BTBHits            0                       # Number of BTB hits (Count)
system.cpu.branchPred.perceptron.BTBHitRatio          nan                       # BTB Hit Ratio (Ratio)
system.cpu.branchPred.perceptron.RASUsed            0                       # Number of times the RAS was used to get a target. (Count)
system.cpu.branchPred.perceptron.RASIncorrect            0                       # Number of incorrect RAS predictions. (Count)
system.cpu.branchPred.perceptron.indirectLookups            0                       # Number of indirect predictor lookups. (Count)
system.cpu.branchPred.perceptron.indirectHits            0                       # Number of indirect target hits. (Count)
system.cpu.branchPred.perceptron.indirectMisses            0                       # Number of indirect misses. (Count)
system.cpu.branchPred.perceptron.indirectMispredicted            0                       # Number of mispredicted indirect branches. (Count)
system.cpu.branchPred.tage.lookups                  0                       # Number of BP lookups (Count)
system.cpu.branchPred.tage.condPredicted            0                       # Number of conditional branches predicted (Count)
system.cpu.branchPred.tage.condIncorrect            0                       # Number of conditional branches incorrect (Count)
system.cpu.branchPred.tage.BTBLookups               0                       # Number of BTB lookups (Count)
system.cpu.branchPred.tage.BTBHits                  0                       # Number of BTB hits (Count)
system.cpu.branchPred.tage.BTBHitRatio            nan                       # BTB Hit Ratio (Ratio)
system.cpu.branchPred.tage.RASUsed                  0                       # Number of times the RAS was used to get a target. (Count)
system.cpu.branchPred.tage.RASIncorrect             0                       # Number of incorrect RAS predictions. (Count)
system.cpu.branchPred.tage.indirectLookups            0                       # Number of indirect predictor lookups. (Count)
system.cpu.branchPred.tage.indirectHits             0                       # Number of indirect target hits. (Count)
system.cpu.branchPred.tage.indirectMisses            0                       # Number of indirect misses. (Count)
system.cpu.branchPred.tage.indirectMispredicted            0                       # Number of mispredicted indirect branches. (Count)
system.cpu.branchPred.tage.tage.longestMatchProviderCorrect       569411                       # Number of times TAGE Longest Match is the provider and the prediction is correct (Count)
system.cpu.branchPred.tage.tage.altMatchProviderCorrect         4189                       # Number of times TAGE Alt Match is the provider and the prediction is correct (Count)
system.cpu.branchPred.tage.tage.bimodalAltMatchProviderCorrect         1231                       # Number of times TAGE Alt Match is the bimodal and it is the provider and the prediction is correct (Count)
system.cpu.branchPred.tage.tage.bimodalProviderCorrect       429032                       # Number of times there are no hits on the TAGE tables and the bimodal prediction is correct (Count)
system.cpu.branchPred.tage.tage.longestMatchProviderWrong        17683                       # Number of times TAGE Longest Match is the provider and the prediction is wrong (Count)
system.cpu.branchPred.tage.tage.altMatchProviderWrong         2694                       # Number of times TAGE Alt Match is the provider and the prediction is wrong (Count)
system.cpu.branchPred.tage.tage.bimodalAltMatchProviderWrong          749                       # Number of times TAGE Alt Match is the bimodal and it is the provider and the prediction is wrong (Count)
system.cpu.branchPred.tage.tage.bimodalProviderWrong         4690                       # Number of times there are no hits on the TAGE tables and the bimodal prediction is wrong (Count)
system.cpu.branchPred.tage.tage.altMatchProviderWouldHaveHit         7911                       # Number of times TAGE Longest Match is the provider, the prediction is wrong and Alt Match prediction was correct (Count)
system.cpu.branchPred.tage.tage.longestMatchProviderWouldHaveHit         2380                       # Number of times TAGE Alt Match is the provider, the prediction is wrong and Longest Match prediction was correct (Count)
system.cpu.branchPred.tage.tage.longestMatchProvider::0            0                       # TAGE provider for longest match (Count)
system.cpu.branchPred.tage.tage.longestMatchProvider::1       111333                       # TAGE provider for longest match (Count)
system.cpu.branchPred.tage.tage.longestMatchProvider::2        93192                       # TAGE provider for longest match (Count)
system.cpu.branchPred.tage.tage.longestMatchProvider::3       109389                       # TAGE provider for longest match (Count)
system.cpu.branchPred.tage.tage.longestMatchProvider::4        71062                       # TAGE provider for longest match (Count)
system.cpu.branchPred.tage.tage.longestMatchProvider::5        78187                       # TAGE provider for longest match (Count)
system.cpu.branchPred.tage.tage.longestMatchProvider::6        51548                       # TAGE provider for longest match (Count)
system.cpu.branchPred.tage.tage.longestMatchProvider::7        32989                       # TAGE provider for longest match (Count)
system.cpu.branchPred.tage.tage.longestMatchProvider::8        19317                       # TAGE provider for longest match (Count)
system.cpu.branchPred.tage.tage.longestMatchProvider::9        10113                       # TAGE provider for longest match (Count)
system.cpu.branchPred.tage.tage.longestMatchProvider::10        11318                       # TAGE provider for longest match (Count)
system.cpu.branchPred.tage.tage.longestMatchProvider::11         4489                       # TAGE provider for longest match (Count)
system.cpu.branchPred.tage.tage.longestMatchProvider::12         1040                       # TAGE provider for longest match (Count)
system.cpu.branchPred.tage.tage.altMatchProvider::0       230521                       # TAGE provider for alt match (Count)
system.cpu.branchPred.tage.tage.altMatchProvider::1        84271                       # TAGE provider for alt match (Count)
system.cpu.branchPred.tage.tage.altMatchProvider::2        65348                       # TAGE provider for alt match (Count)
system.cpu.branchPred.tage.tage.altMatchProvider::3        75624                       # TAGE provider for alt match (Count)
system.cpu.branchPred.tage.tage.altMatchProvider::4        53702                       # TAGE provider for alt match (Count)
system.cpu.branchPred.tage.tage.altMatchProvider::5        37241                       # TAGE provider for alt match (Count)
system.cpu.branchPred.tage.tage.altMatchProvider::6        14659                       # TAGE provider for alt match (Count)
system.cpu.branchPred.tage.tage.altMatchProvider::7        16046                       # TAGE provider for alt match (Count)
system.cpu.branchPred.tage.tage.altMatchProvider::8         6425                       # TAGE provider for alt match (Count)
system.cpu.branchPred.tage.tage.altMatchProvider::9         6049                       # TAGE provider for alt match (Count)
system.cpu.branchPred.tage.tage.altMatchProvider::10         3601                       # TAGE provider for alt match (Count)
system.cpu.branchPred.tage.tage.altMatchProvider::11          490                       # TAGE provider for alt match (Count)
system.cpu.branchPred.tage.tage.altMatchProvider::12            0                       # TAGE provider for alt match (Count)
system.cpu.commit.commitSquashedInsts         1789542                       # The number of squashed insts skipped by commit (Count)
system.cpu.commit.commitNonSpecStalls            7781                       # The number of times commit has been forced to stall to communicate backwards (Count)
system.cpu.commit.branchMispredicts             34638                       # The number of times a branch was mispredicted (Count)
system.cpu.commit.numCommittedDist::samples      3693474                       # Number of insts commited each cycle (Count)
system.cpu.commit.numCommittedDist::mean     3.111729                       # Number of insts commited each cycle (Count)
system.cpu.commit.numCommittedDist::stdev     2.992735                       # Number of insts commited each cycle (Count)
system.cpu.commit.numCommittedDist::underflows            0      0.00%      0.00% # Number of insts commited each cycle (Count)
system.cpu.commit.numCommittedDist::0         1051529     28.47%     28.47% # Number of insts commited each cycle (Count)
system.cpu.commit.numCommittedDist::1          520147     14.08%     42.55% # Number of insts commited each cycle (Count)
system.cpu.commit.numCommittedDist::2          287800      7.79%     50.34% # Number of insts commited each cycle (Count)
system.cpu.commit.numCommittedDist::3          514141     13.92%     64.27% # Number of insts commited each cycle (Count)
system.cpu.commit.numCommittedDist::4          204310      5.53%     69.80% # Number of insts commited each cycle (Count)
system.cpu.commit.numCommittedDist::5          136903      3.71%     73.50% # Number of insts commited each cycle (Count)
system.cpu.commit.numCommittedDist::6          180146      4.88%     78.38% # Number of insts commited each cycle (Count)
system.cpu.commit.numCommittedDist::7          115696      3.13%     81.51% # Number of insts commited each cycle (Count)
system.cpu.commit.numCommittedDist::8          682802     18.49%    100.00% # Number of insts commited each cycle (Count)
system.cpu.commit.numCommittedDist::overflows            0      0.00%    100.00% # Number of insts commited each cycle (Count)
system.cpu.commit.numCommittedDist::min_value            0                       # Number of insts commited each cycle (Count)
system.cpu.commit.numCommittedDist::max_value            8                       # Number of insts commited each cycle (Count)
system.cpu.commit.numCommittedDist::total      3693474                       # Number of insts commited each cycle (Count)
system.cpu.commit.instsCommitted              5989129                       # Number of instructions committed (Count)
system.cpu.commit.opsCommitted               11493089                       # Number of ops (including micro ops) committed (Count)
system.cpu.commit.memRefs                     2663210                       # Number of memory references committed (Count)
system.cpu.commit.loads                       1673889                       # Number of loads committed (Count)
system.cpu.commit.amos                              0                       # Number of atomic instructions committed (Count)
system.cpu.commit.membars                        4820                       # Number of memory barriers committed (Count)
system.cpu.commit.branches                    1314589                       # Number of branches committed (Count)
system.cpu.commit.vectorInstructions                0                       # Number of committed Vector instructions. (Count)
system.cpu.commit.floating                       1505                       # Number of committed floating point instructions. (Count)
system.cpu.commit.integer                    11432050                       # Number of committed integer instructions. (Count)
system.cpu.commit.functionCalls                 94785                       # Number of function calls committed. (Count)
system.cpu.commit.committedInstType_0::No_OpClass         3335      0.03%      0.03% # Class of committed instruction (Count)
system.cpu.commit.committedInstType_0::IntAlu      8825062     76.79%     76.81% # Class of committed instruction (Count)
system.cpu.commit.committedInstType_0::IntMult          213      0.00%     76.82% # Class of committed instruction (Count)
system.cpu.commit.committedInstType_0::IntDiv         1119      0.01%     76.83% # Class of committed instruction (Count)
system.cpu.commit.committedInstType_0::FloatAdd           50      0.00%     76.83% # Class of committed instruction (Count)
system.cpu.commit.committedInstType_0::FloatCmp          100      0.00%     76.83% # Class of committed instruction (Count)
system.cpu.commit.committedInstType_0::FloatCvt            0      0.00%     76.83% # Class of committed instruction (Count)
system.cpu.commit.committedInstType_0::FloatMult            0      0.00%     76.83% # Class of committed instruction (Count)
system.cpu.commit.committedInstType_0::FloatMultAcc            0      0.00%     76.83% # Class of committed instruction (Count)
system.cpu.commit.committedInstType_0::FloatDiv            0      0.00%     76.83% # Class of committed instruction (Count)
system.cpu.commit.committedInstType_0::FloatMisc            0      0.00%     76.83% # Class of committed instruction (Count)
system.cpu.commit.committedInstType_0::FloatSqrt            0      0.00%     76.83% # Class of committed instruction (Count)
system.cpu.commit.committedInstType_0::SimdAdd            0      0.00%     76.83% # Class of committed instruction (Count)
system.cpu.commit.committedInstType_0::SimdAddAcc            0      0.00%     76.83% # Class of committed instruction (Count)
system.cpu.commit.committedInstType_0::SimdAlu            0      0.00%     76.83% # Class of committed instruction (Count)
system.cpu.commit.committedInstType_0::SimdCmp            0      0.00%     76.83% # Class of committed instruction (Count)
system.cpu.commit.committedInstType_0::SimdCvt            0      0.00%     76.83% # Class of committed instruction (Count)
system.cpu.commit.committedInstType_0::SimdMisc            0      0.00%     76.83% # Class of committed instruction (Count)
system.cpu.commit.committedInstType_0::SimdMult            0      0.00%     76.83% # Class of committed instruction (Count)
system.cpu.commit.committedInstType_0::SimdMultAcc            0      0.00%     76.83% # Class of committed instruction (Count)
system.cpu.commit.committedInstType_0::SimdShift            0      0.00%     76.83% # Class of committed instruction (Count)
system.cpu.commit.committedInstType_0::SimdShiftAcc            0      0.00%     76.83% # Class of committed instruction (Count)
system.cpu.commit.committedInstType_0::SimdDiv            0      0.00%     76.83% # Class of committed instruction (Count)
system.cpu.commit.committedInstType_0::SimdSqrt            0      0.00%     76.83% # Class of committed instruction (Count)
system.cpu.commit.committedInstType_0::SimdFloatAdd            0      0.00%     76.83% # Class of committed instruction (Count)
system.cpu.commit.committedInstType_0::SimdFloatAlu            0      0.00%     76.83% # Class of committed instruction (Count)
system.cpu.commit.committedInstType_0::SimdFloatCmp            0      0.00%     76.83% # Class of committed instruction (Count)
system.cpu.commit.committedInstType_0::SimdFloatCvt            0      0.00%     76.83% # Class of committed instruction (Count)
system.cpu.commit.committedInstType_0::SimdFloatDiv            0      0.00%     76.83% # Class of committed instruction (Count)
system.cpu.commit.committedInstType_0::SimdFloatMisc            0      0.00%     76.83% # Class of committed instruction (Count)
system.cpu.commit.committedInstType_0::SimdFloatMult            0      0.00%     76.83% # Class of committed instruction (Count)
system.cpu.commit.committedInstType_0::SimdFloatMultAcc            0      0.00%     76.83% # Class of committed instruction (Count)
system.cpu.commit.committedInstType_0::SimdFloatSqrt            0      0.00%     76.83% # Class of committed instruction (Count)
system.cpu.commit.committedInstType_0::SimdReduceAdd            0      0.00%     76.83% # Class of committed instruction (Count)
system.cpu.commit.committedInstType_0::SimdReduceAlu            0      0.00%     76.83% # Class of committed instruction (Count)
system.cpu.commit.committedInstType_0::SimdReduceCmp            0      0.00%     76.83% # Class of committed instruction (Count)
system.cpu.commit.committedInstType_0::SimdFloatReduceAdd            0      0.00%     76.83% # Class of committed instruction (Count)
system.cpu.commit.committedInstType_0::SimdFloatReduceCmp            0      0.00%     76.83% # Class of committed instruction (Count)
system.cpu.commit.committedInstType_0::SimdAes            0      0.00%     76.83% # Class of committed instruction (Count)
system.cpu.commit.committedInstType_0::SimdAesMix            0      0.00%     76.83% # Class of committed instruction (Count)
system.cpu.commit.committedInstType_0::SimdSha1Hash            0      0.00%     76.83% # Class of committed instruction (Count)
system.cpu.commit.committedInstType_0::SimdSha1Hash2            0      0.00%     76.83% # Class of committed instruction (Count)
system.cpu.commit.committedInstType_0::SimdSha256Hash            0      0.00%     76.83% # Class of committed instruction (Count)
system.cpu.commit.committedInstType_0::SimdSha256Hash2            0      0.00%     76.83% # Class of committed instruction (Count)
system.cpu.commit.committedInstType_0::SimdShaSigma2            0      0.00%     76.83% # Class of committed instruction (Count)
system.cpu.commit.committedInstType_0::SimdShaSigma3            0      0.00%     76.83% # Class of committed instruction (Count)
system.cpu.commit.committedInstType_0::SimdPredAlu            0      0.00%     76.83% # Class of committed instruction (Count)
system.cpu.commit.committedInstType_0::MemRead      1673525     14.56%     91.39% # Class of committed instruction (Count)
system.cpu.commit.committedInstType_0::MemWrite       989077      8.61%     99.99% # Class of committed instruction (Count)
system.cpu.commit.committedInstType_0::FloatMemRead          364      0.00%    100.00% # Class of committed instruction (Count)
system.cpu.commit.committedInstType_0::FloatMemWrite          244      0.00%    100.00% # Class of committed instruction (Count)
system.cpu.commit.committedInstType_0::IprAccess            0      0.00%    100.00% # Class of committed instruction (Count)
system.cpu.commit.committedInstType_0::InstPrefetch            0      0.00%    100.00% # Class of committed instruction (Count)
system.cpu.commit.committedInstType_0::total     11493089                       # Class of committed instruction (Count)
system.cpu.commit.commitEligibleSamples        682802                       # number cycles where commit BW limit reached (Cycle)
system.cpu.dcache.demandHits::cpu.data        2308787                       # number of demand (read+write) hits (Count)
system.cpu.dcache.demandHits::total           2308787                       # number of demand (read+write) hits (Count)
system.cpu.dcache.overallHits::cpu.data       2308787                       # number of overall hits (Count)
system.cpu.dcache.overallHits::total          2308787                       # number of overall hits (Count)
system.cpu.dcache.demandMisses::cpu.data         4944                       # number of demand (read+write) misses (Count)
system.cpu.dcache.demandMisses::total            4944                       # number of demand (read+write) misses (Count)
system.cpu.dcache.overallMisses::cpu.data         4944                       # number of overall misses (Count)
system.cpu.dcache.overallMisses::total           4944                       # number of overall misses (Count)
system.cpu.dcache.demandMissLatency::cpu.data    301418999                       # number of demand (read+write) miss ticks (Tick)
system.cpu.dcache.demandMissLatency::total    301418999                       # number of demand (read+write) miss ticks (Tick)
system.cpu.dcache.overallMissLatency::cpu.data    301418999                       # number of overall miss ticks (Tick)
system.cpu.dcache.overallMissLatency::total    301418999                       # number of overall miss ticks (Tick)
system.cpu.dcache.demandAccesses::cpu.data      2313731                       # number of demand (read+write) accesses (Count)
system.cpu.dcache.demandAccesses::total       2313731                       # number of demand (read+write) accesses (Count)
system.cpu.dcache.overallAccesses::cpu.data      2313731                       # number of overall (read+write) accesses (Count)
system.cpu.dcache.overallAccesses::total      2313731                       # number of overall (read+write) accesses (Count)
system.cpu.dcache.demandMissRate::cpu.data     0.002137                       # miss rate for demand accesses (Ratio)
system.cpu.dcache.demandMissRate::total      0.002137                       # miss rate for demand accesses (Ratio)
system.cpu.dcache.overallMissRate::cpu.data     0.002137                       # miss rate for overall accesses (Ratio)
system.cpu.dcache.overallMissRate::total     0.002137                       # miss rate for overall accesses (Ratio)
system.cpu.dcache.demandAvgMissLatency::cpu.data 60966.626011                       # average overall miss latency ((Cycle/Count))
system.cpu.dcache.demandAvgMissLatency::total 60966.626011                       # average overall miss latency ((Cycle/Count))
system.cpu.dcache.overallAvgMissLatency::cpu.data 60966.626011                       # average overall miss latency ((Cycle/Count))
system.cpu.dcache.overallAvgMissLatency::total 60966.626011                       # average overall miss latency ((Cycle/Count))
system.cpu.dcache.blockedCycles::no_mshrs          651                       # number of cycles access was blocked (Cycle)
system.cpu.dcache.blockedCycles::no_targets            0                       # number of cycles access was blocked (Cycle)
system.cpu.dcache.blockedCauses::no_mshrs           12                       # number of times access was blocked (Count)
system.cpu.dcache.blockedCauses::no_targets            0                       # number of times access was blocked (Count)
system.cpu.dcache.avgBlocked::no_mshrs      54.250000                       # average number of cycles each access was blocked ((Cycle/Count))
system.cpu.dcache.avgBlocked::no_targets          nan                       # average number of cycles each access was blocked ((Cycle/Count))
system.cpu.dcache.writebacks::writebacks         1858                       # number of writebacks (Count)
system.cpu.dcache.writebacks::total              1858                       # number of writebacks (Count)
system.cpu.dcache.demandMshrHits::cpu.data         1827                       # number of demand (read+write) MSHR hits (Count)
system.cpu.dcache.demandMshrHits::total          1827                       # number of demand (read+write) MSHR hits (Count)
system.cpu.dcache.overallMshrHits::cpu.data         1827                       # number of overall MSHR hits (Count)
system.cpu.dcache.overallMshrHits::total         1827                       # number of overall MSHR hits (Count)
system.cpu.dcache.demandMshrMisses::cpu.data         3117                       # number of demand (read+write) MSHR misses (Count)
system.cpu.dcache.demandMshrMisses::total         3117                       # number of demand (read+write) MSHR misses (Count)
system.cpu.dcache.overallMshrMisses::cpu.data         3117                       # number of overall MSHR misses (Count)
system.cpu.dcache.overallMshrMisses::total         3117                       # number of overall MSHR misses (Count)
system.cpu.dcache.demandMshrMissLatency::cpu.data    183531500                       # number of demand (read+write) MSHR miss ticks (Tick)
system.cpu.dcache.demandMshrMissLatency::total    183531500                       # number of demand (read+write) MSHR miss ticks (Tick)
system.cpu.dcache.overallMshrMissLatency::cpu.data    183531500                       # number of overall MSHR miss ticks (Tick)
system.cpu.dcache.overallMshrMissLatency::total    183531500                       # number of overall MSHR miss ticks (Tick)
system.cpu.dcache.demandMshrMissRate::cpu.data     0.001347                       # mshr miss ratio for demand accesses (Ratio)
system.cpu.dcache.demandMshrMissRate::total     0.001347                       # mshr miss ratio for demand accesses (Ratio)
system.cpu.dcache.overallMshrMissRate::cpu.data     0.001347                       # mshr miss ratio for overall accesses (Ratio)
system.cpu.dcache.overallMshrMissRate::total     0.001347                       # mshr miss ratio for overall accesses (Ratio)
system.cpu.dcache.demandAvgMshrMissLatency::cpu.data 58880.814886                       # average overall mshr miss latency ((Cycle/Count))
system.cpu.dcache.demandAvgMshrMissLatency::total 58880.814886                       # average overall mshr miss latency ((Cycle/Count))
system.cpu.dcache.overallAvgMshrMissLatency::cpu.data 58880.814886                       # average overall mshr miss latency ((Cycle/Count))
system.cpu.dcache.overallAvgMshrMissLatency::total 58880.814886                       # average overall mshr miss latency ((Cycle/Count))
system.cpu.dcache.replacements                   2602                       # number of replacements (Count)
system.cpu.dcache.ReadReq.hits::cpu.data      1321017                       # number of ReadReq hits (Count)
system.cpu.dcache.ReadReq.hits::total         1321017                       # number of ReadReq hits (Count)
system.cpu.dcache.ReadReq.misses::cpu.data         3309                       # number of ReadReq misses (Count)
system.cpu.dcache.ReadReq.misses::total          3309                       # number of ReadReq misses (Count)
system.cpu.dcache.ReadReq.missLatency::cpu.data    179084000                       # number of ReadReq miss ticks (Tick)
system.cpu.dcache.ReadReq.missLatency::total    179084000                       # number of ReadReq miss ticks (Tick)
system.cpu.dcache.ReadReq.accesses::cpu.data      1324326                       # number of ReadReq accesses(hits+misses) (Count)
system.cpu.dcache.ReadReq.accesses::total      1324326                       # number of ReadReq accesses(hits+misses) (Count)
system.cpu.dcache.ReadReq.missRate::cpu.data     0.002499                       # miss rate for ReadReq accesses (Ratio)
system.cpu.dcache.ReadReq.missRate::total     0.002499                       # miss rate for ReadReq accesses (Ratio)
system.cpu.dcache.ReadReq.avgMissLatency::cpu.data 54120.278030                       # average ReadReq miss latency ((Tick/Count))
system.cpu.dcache.ReadReq.avgMissLatency::total 54120.278030                       # average ReadReq miss latency ((Tick/Count))
system.cpu.dcache.ReadReq.mshrHits::cpu.data         1811                       # number of ReadReq MSHR hits (Count)
system.cpu.dcache.ReadReq.mshrHits::total         1811                       # number of ReadReq MSHR hits (Count)
system.cpu.dcache.ReadReq.mshrMisses::cpu.data         1498                       # number of ReadReq MSHR misses (Count)
system.cpu.dcache.ReadReq.mshrMisses::total         1498                       # number of ReadReq MSHR misses (Count)
system.cpu.dcache.ReadReq.mshrMissLatency::cpu.data     63886500                       # number of ReadReq MSHR miss ticks (Tick)
system.cpu.dcache.ReadReq.mshrMissLatency::total     63886500                       # number of ReadReq MSHR miss ticks (Tick)
system.cpu.dcache.ReadReq.mshrMissRate::cpu.data     0.001131                       # mshr miss rate for ReadReq accesses (Ratio)
system.cpu.dcache.ReadReq.mshrMissRate::total     0.001131                       # mshr miss rate for ReadReq accesses (Ratio)
system.cpu.dcache.ReadReq.avgMshrMissLatency::cpu.data 42647.863818                       # average ReadReq mshr miss latency ((Tick/Count))
system.cpu.dcache.ReadReq.avgMshrMissLatency::total 42647.863818                       # average ReadReq mshr miss latency ((Tick/Count))
system.cpu.dcache.WriteReq.hits::cpu.data       987770                       # number of WriteReq hits (Count)
system.cpu.dcache.WriteReq.hits::total         987770                       # number of WriteReq hits (Count)
system.cpu.dcache.WriteReq.misses::cpu.data         1635                       # number of WriteReq misses (Count)
system.cpu.dcache.WriteReq.misses::total         1635                       # number of WriteReq misses (Count)
system.cpu.dcache.WriteReq.missLatency::cpu.data    122334999                       # number of WriteReq miss ticks (Tick)
system.cpu.dcache.WriteReq.missLatency::total    122334999                       # number of WriteReq miss ticks (Tick)
system.cpu.dcache.WriteReq.accesses::cpu.data       989405                       # number of WriteReq accesses(hits+misses) (Count)
system.cpu.dcache.WriteReq.accesses::total       989405                       # number of WriteReq accesses(hits+misses) (Count)
system.cpu.dcache.WriteReq.missRate::cpu.data     0.001653                       # miss rate for WriteReq accesses (Ratio)
system.cpu.dcache.WriteReq.missRate::total     0.001653                       # miss rate for WriteReq accesses (Ratio)
system.cpu.dcache.WriteReq.avgMissLatency::cpu.data 74822.629358                       # average WriteReq miss latency ((Tick/Count))
system.cpu.dcache.WriteReq.avgMissLatency::total 74822.629358                       # average WriteReq miss latency ((Tick/Count))
system.cpu.dcache.WriteReq.mshrHits::cpu.data           16                       # number of WriteReq MSHR hits (Count)
system.cpu.dcache.WriteReq.mshrHits::total           16                       # number of WriteReq MSHR hits (Count)
system.cpu.dcache.WriteReq.mshrMisses::cpu.data         1619                       # number of WriteReq MSHR misses (Count)
system.cpu.dcache.WriteReq.mshrMisses::total         1619                       # number of WriteReq MSHR misses (Count)
system.cpu.dcache.WriteReq.mshrMissLatency::cpu.data    119645000                       # number of WriteReq MSHR miss ticks (Tick)
system.cpu.dcache.WriteReq.mshrMissLatency::total    119645000                       # number of WriteReq MSHR miss ticks (Tick)
system.cpu.dcache.WriteReq.mshrMissRate::cpu.data     0.001636                       # mshr miss rate for WriteReq accesses (Ratio)
system.cpu.dcache.WriteReq.mshrMissRate::total     0.001636                       # mshr miss rate for WriteReq accesses (Ratio)
system.cpu.dcache.WriteReq.avgMshrMissLatency::cpu.data 73900.555899                       # average WriteReq mshr miss latency ((Tick/Count))
system.cpu.dcache.WriteReq.avgMshrMissLatency::total 73900.555899                       # average WriteReq mshr miss latency ((Tick/Count))
system.cpu.dcache.power_state.pwrStateResidencyTicks::UNDEFINED   2041884500                       # Cumulative time (in ticks) in various power states (Tick)
system.cpu.dcache.tags.tagsInUse           482.756730                       # Average ticks per tags in use ((Tick/Count))
system.cpu.dcache.tags.totalRefs              2311904                       # Total number of references to valid blocks. (Count)
system.cpu.dcache.tags.sampledRefs               3114                       # Sample count of references to valid blocks. (Count)
system.cpu.dcache.tags.avgRefs             742.422608                       # Average number of references to valid blocks. ((Count/Count))
system.cpu.dcache.tags.warmupTick              176500                       # The tick when the warmup percentage was hit. (Tick)
system.cpu.dcache.tags.occupancies::cpu.data   482.756730                       # Average occupied blocks per tick, per requestor ((Count/Tick))
system.cpu.dcache.tags.avgOccs::cpu.data     0.942884                       # Average percentage of cache occupancy ((Ratio/Tick))
system.cpu.dcache.tags.avgOccs::total        0.942884                       # Average percentage of cache occupancy ((Ratio/Tick))
system.cpu.dcache.tags.occupanciesTaskId::1024          512                       # Occupied blocks per task id (Count)
system.cpu.dcache.tags.ageTaskId_1024::0           45                       # Occupied blocks per task id, per block age (Count)
system.cpu.dcache.tags.ageTaskId_1024::1          119                       # Occupied blocks per task id, per block age (Count)
system.cpu.dcache.tags.ageTaskId_1024::2          263                       # Occupied blocks per task id, per block age (Count)
system.cpu.dcache.tags.ageTaskId_1024::3           85                       # Occupied blocks per task id, per block age (Count)
system.cpu.dcache.tags.ratioOccsTaskId::1024            1                       # Ratio of occupied blocks and all blocks, per task id (Ratio)
system.cpu.dcache.tags.tagAccesses            9258038                       # Number of tag accesses (Count)
system.cpu.dcache.tags.dataAccesses           9258038                       # Number of data accesses (Count)
system.cpu.dcache.tags.power_state.pwrStateResidencyTicks::UNDEFINED   2041884500                       # Cumulative time (in ticks) in various power states (Tick)
system.cpu.decode.idleCycles                   999117                       # Number of cycles decode is idle (Cycle)
system.cpu.decode.blockedCycles                807344                       # Number of cycles decode is blocked (Cycle)
system.cpu.decode.runCycles                   1856141                       # Number of cycles decode is running (Cycle)
system.cpu.decode.unblockCycles                240114                       # Number of cycles decode is unblocking (Cycle)
system.cpu.decode.squashCycles                  40255                       # Number of cycles decode is squashing (Cycle)
system.cpu.decode.branchResolved               700792                       # Number of times decode resolved a branch (Count)
system.cpu.decode.branchMispred                  7825                       # Number of times decode detected a branch misprediction (Count)
system.cpu.decode.decodedInsts               13768354                       # Number of instructions handled by decode (Count)
system.cpu.decode.squashedInsts                 34618                       # Number of squashed instructions handled by decode (Count)
system.cpu.dtb_walker_cache.blockedCycles::no_mshrs            0                       # number of cycles access was blocked (Cycle)
system.cpu.dtb_walker_cache.blockedCycles::no_targets            0                       # number of cycles access was blocked (Cycle)
system.cpu.dtb_walker_cache.blockedCauses::no_mshrs            0                       # number of times access was blocked (Count)
system.cpu.dtb_walker_cache.blockedCauses::no_targets            0                       # number of times access was blocked (Count)
system.cpu.dtb_walker_cache.avgBlocked::no_mshrs          nan                       # average number of cycles each access was blocked ((Cycle/Count))
system.cpu.dtb_walker_cache.avgBlocked::no_targets          nan                       # average number of cycles each access was blocked ((Cycle/Count))
system.cpu.dtb_walker_cache.replacements            0                       # number of replacements (Count)
system.cpu.dtb_walker_cache.power_state.pwrStateResidencyTicks::UNDEFINED   2041884500                       # Cumulative time (in ticks) in various power states (Tick)
system.cpu.dtb_walker_cache.tags.tagsInUse            0                       # Average ticks per tags in use ((Tick/Count))
system.cpu.dtb_walker_cache.tags.totalRefs            0                       # Total number of references to valid blocks. (Count)
system.cpu.dtb_walker_cache.tags.sampledRefs            0                       # Sample count of references to valid blocks. (Count)
system.cpu.dtb_walker_cache.tags.avgRefs          nan                       # Average number of references to valid blocks. ((Count/Count))
system.cpu.dtb_walker_cache.tags.warmupTick            0                       # The tick when the warmup percentage was hit. (Tick)
system.cpu.dtb_walker_cache.tags.tagAccesses            0                       # Number of tag accesses (Count)
system.cpu.dtb_walker_cache.tags.dataAccesses            0                       # Number of data accesses (Count)
system.cpu.dtb_walker_cache.tags.power_state.pwrStateResidencyTicks::UNDEFINED   2041884500                       # Cumulative time (in ticks) in various power states (Tick)
system.cpu.fetch.icacheStallCycles            1099356                       # Number of cycles fetch is stalled on an Icache miss (Cycle)
system.cpu.fetch.insts                        7365900                       # Number of instructions fetch has processed (Count)
system.cpu.fetch.branches                     1628135                       # Number of branches that fetch encountered (Count)
system.cpu.fetch.predictedBranches             852769                       # Number of branches that fetch has predicted taken (Count)
system.cpu.fetch.cycles                       2792716                       # Number of cycles fetch has run and was not squashing or blocked (Cycle)
system.cpu.fetch.squashCycles                   95708                       # Number of cycles fetch has spent squashing (Cycle)
system.cpu.fetch.miscStallCycles                  332                       # Number of cycles fetch has spent waiting on interrupts, or bad addresses, or out of MSHRs (Cycle)
system.cpu.fetch.pendingTrapStallCycles          2673                       # Number of stall cycles due to pending traps (Cycle)
system.cpu.fetch.pendingQuiesceStallCycles           26                       # Number of stall cycles due to pending quiesce instructions (Cycle)
system.cpu.fetch.icacheWaitRetryStallCycles           14                       # Number of stall cycles due to full MSHR (Cycle)
system.cpu.fetch.cacheLines                    886383                       # Number of cache lines fetched (Count)
system.cpu.fetch.icacheSquashes                 13781                       # Number of outstanding Icache misses that were squashed (Count)
system.cpu.fetch.nisnDist::samples            3942971                       # Number of instructions fetched each cycle (Total) (Count)
system.cpu.fetch.nisnDist::mean              3.598026                       # Number of instructions fetched each cycle (Total) (Count)
system.cpu.fetch.nisnDist::stdev             3.573611                       # Number of instructions fetched each cycle (Total) (Count)
system.cpu.fetch.nisnDist::underflows               0      0.00%      0.00% # Number of instructions fetched each cycle (Total) (Count)
system.cpu.fetch.nisnDist::0                  1614956     40.96%     40.96% # Number of instructions fetched each cycle (Total) (Count)
system.cpu.fetch.nisnDist::1                   205070      5.20%     46.16% # Number of instructions fetched each cycle (Total) (Count)
system.cpu.fetch.nisnDist::2                   184016      4.67%     50.83% # Number of instructions fetched each cycle (Total) (Count)
system.cpu.fetch.nisnDist::3                    85478      2.17%     52.99% # Number of instructions fetched each cycle (Total) (Count)
system.cpu.fetch.nisnDist::4                   171548      4.35%     57.34% # Number of instructions fetched each cycle (Total) (Count)
system.cpu.fetch.nisnDist::5                   129736      3.29%     60.63% # Number of instructions fetched each cycle (Total) (Count)
system.cpu.fetch.nisnDist::6                   142278      3.61%     64.24% # Number of instructions fetched each cycle (Total) (Count)
system.cpu.fetch.nisnDist::7                   110277      2.80%     67.04% # Number of instructions fetched each cycle (Total) (Count)
system.cpu.fetch.nisnDist::8                  1299612     32.96%    100.00% # Number of instructions fetched each cycle (Total) (Count)
system.cpu.fetch.nisnDist::overflows                0      0.00%    100.00% # Number of instructions fetched each cycle (Total) (Count)
system.cpu.fetch.nisnDist::min_value                0                       # Number of instructions fetched each cycle (Total) (Count)
system.cpu.fetch.nisnDist::max_value                8                       # Number of instructions fetched each cycle (Total) (Count)
system.cpu.fetch.nisnDist::total              3942971                       # Number of instructions fetched each cycle (Total) (Count)
system.cpu.fetch.branchRate                  0.398684                       # Number of branch fetches per cycle (Ratio)
system.cpu.fetch.rate                        1.803701                       # Number of inst fetches per cycle ((Count/Cycle))
system.cpu.icache.demandHits::cpu.inst         876201                       # number of demand (read+write) hits (Count)
system.cpu.icache.demandHits::total            876201                       # number of demand (read+write) hits (Count)
system.cpu.icache.overallHits::cpu.inst        876201                       # number of overall hits (Count)
system.cpu.icache.overallHits::total           876201                       # number of overall hits (Count)
system.cpu.icache.demandMisses::cpu.inst        10182                       # number of demand (read+write) misses (Count)
system.cpu.icache.demandMisses::total           10182                       # number of demand (read+write) misses (Count)
system.cpu.icache.overallMisses::cpu.inst        10182                       # number of overall misses (Count)
system.cpu.icache.overallMisses::total          10182                       # number of overall misses (Count)
system.cpu.icache.demandMissLatency::cpu.inst    280519500                       # number of demand (read+write) miss ticks (Tick)
system.cpu.icache.demandMissLatency::total    280519500                       # number of demand (read+write) miss ticks (Tick)
system.cpu.icache.overallMissLatency::cpu.inst    280519500                       # number of overall miss ticks (Tick)
system.cpu.icache.overallMissLatency::total    280519500                       # number of overall miss ticks (Tick)
system.cpu.icache.demandAccesses::cpu.inst       886383                       # number of demand (read+write) accesses (Count)
system.cpu.icache.demandAccesses::total        886383                       # number of demand (read+write) accesses (Count)
system.cpu.icache.overallAccesses::cpu.inst       886383                       # number of overall (read+write) accesses (Count)
system.cpu.icache.overallAccesses::total       886383                       # number of overall (read+write) accesses (Count)
system.cpu.icache.demandMissRate::cpu.inst     0.011487                       # miss rate for demand accesses (Ratio)
system.cpu.icache.demandMissRate::total      0.011487                       # miss rate for demand accesses (Ratio)
system.cpu.icache.overallMissRate::cpu.inst     0.011487                       # miss rate for overall accesses (Ratio)
system.cpu.icache.overallMissRate::total     0.011487                       # miss rate for overall accesses (Ratio)
system.cpu.icache.demandAvgMissLatency::cpu.inst 27550.530348                       # average overall miss latency ((Cycle/Count))
system.cpu.icache.demandAvgMissLatency::total 27550.530348                       # average overall miss latency ((Cycle/Count))
system.cpu.icache.overallAvgMissLatency::cpu.inst 27550.530348                       # average overall miss latency ((Cycle/Count))
system.cpu.icache.overallAvgMissLatency::total 27550.530348                       # average overall miss latency ((Cycle/Count))
system.cpu.icache.blockedCycles::no_mshrs          361                       # number of cycles access was blocked (Cycle)
system.cpu.icache.blockedCycles::no_targets            0                       # number of cycles access was blocked (Cycle)
system.cpu.icache.blockedCauses::no_mshrs            4                       # number of times access was blocked (Count)
system.cpu.icache.blockedCauses::no_targets            0                       # number of times access was blocked (Count)
system.cpu.icache.avgBlocked::no_mshrs      90.250000                       # average number of cycles each access was blocked ((Cycle/Count))
system.cpu.icache.avgBlocked::no_targets          nan                       # average number of cycles each access was blocked ((Cycle/Count))
system.cpu.icache.writebacks::writebacks         8331                       # number of writebacks (Count)
system.cpu.icache.writebacks::total              8331                       # number of writebacks (Count)
system.cpu.icache.demandMshrHits::cpu.inst         1336                       # number of demand (read+write) MSHR hits (Count)
system.cpu.icache.demandMshrHits::total          1336                       # number of demand (read+write) MSHR hits (Count)
system.cpu.icache.overallMshrHits::cpu.inst         1336                       # number of overall MSHR hits (Count)
system.cpu.icache.overallMshrHits::total         1336                       # number of overall MSHR hits (Count)
system.cpu.icache.demandMshrMisses::cpu.inst         8846                       # number of demand (read+write) MSHR misses (Count)
system.cpu.icache.demandMshrMisses::total         8846                       # number of demand (read+write) MSHR misses (Count)
system.cpu.icache.overallMshrMisses::cpu.inst         8846                       # number of overall MSHR misses (Count)
system.cpu.icache.overallMshrMisses::total         8846                       # number of overall MSHR misses (Count)
system.cpu.icache.demandMshrMissLatency::cpu.inst    232166000                       # number of demand (read+write) MSHR miss ticks (Tick)
system.cpu.icache.demandMshrMissLatency::total    232166000                       # number of demand (read+write) MSHR miss ticks (Tick)
system.cpu.icache.overallMshrMissLatency::cpu.inst    232166000                       # number of overall MSHR miss ticks (Tick)
system.cpu.icache.overallMshrMissLatency::total    232166000                       # number of overall MSHR miss ticks (Tick)
system.cpu.icache.demandMshrMissRate::cpu.inst     0.009980                       # mshr miss ratio for demand accesses (Ratio)
system.cpu.icache.demandMshrMissRate::total     0.009980                       # mshr miss ratio for demand accesses (Ratio)
system.cpu.icache.overallMshrMissRate::cpu.inst     0.009980                       # mshr miss ratio for overall accesses (Ratio)
system.cpu.icache.overallMshrMissRate::total     0.009980                       # mshr miss ratio for overall accesses (Ratio)
system.cpu.icache.demandAvgMshrMissLatency::cpu.inst 26245.308614                       # average overall mshr miss latency ((Cycle/Count))
system.cpu.icache.demandAvgMshrMissLatency::total 26245.308614                       # average overall mshr miss latency ((Cycle/Count))
system.cpu.icache.overallAvgMshrMissLatency::cpu.inst 26245.308614                       # average overall mshr miss latency ((Cycle/Count))
system.cpu.icache.overallAvgMshrMissLatency::total 26245.308614                       # average overall mshr miss latency ((Cycle/Count))
system.cpu.icache.replacements                   8331                       # number of replacements (Count)
system.cpu.icache.ReadReq.hits::cpu.inst       876201                       # number of ReadReq hits (Count)
system.cpu.icache.ReadReq.hits::total          876201                       # number of ReadReq hits (Count)
system.cpu.icache.ReadReq.misses::cpu.inst        10182                       # number of ReadReq misses (Count)
system.cpu.icache.ReadReq.misses::total         10182                       # number of ReadReq misses (Count)
system.cpu.icache.ReadReq.missLatency::cpu.inst    280519500                       # number of ReadReq miss ticks (Tick)
system.cpu.icache.ReadReq.missLatency::total    280519500                       # number of ReadReq miss ticks (Tick)
system.cpu.icache.ReadReq.accesses::cpu.inst       886383                       # number of ReadReq accesses(hits+misses) (Count)
system.cpu.icache.ReadReq.accesses::total       886383                       # number of ReadReq accesses(hits+misses) (Count)
system.cpu.icache.ReadReq.missRate::cpu.inst     0.011487                       # miss rate for ReadReq accesses (Ratio)
system.cpu.icache.ReadReq.missRate::total     0.011487                       # miss rate for ReadReq accesses (Ratio)
system.cpu.icache.ReadReq.avgMissLatency::cpu.inst 27550.530348                       # average ReadReq miss latency ((Tick/Count))
system.cpu.icache.ReadReq.avgMissLatency::total 27550.530348                       # average ReadReq miss latency ((Tick/Count))
system.cpu.icache.ReadReq.mshrHits::cpu.inst         1336                       # number of ReadReq MSHR hits (Count)
system.cpu.icache.ReadReq.mshrHits::total         1336                       # number of ReadReq MSHR hits (Count)
system.cpu.icache.ReadReq.mshrMisses::cpu.inst         8846                       # number of ReadReq MSHR misses (Count)
[...]
system.mem_ctrls.dram.perBankWrBursts::15           21                       # Per bank write bursts (Count)
system.mem_ctrls.dram.totQLat                38609500                       # Total ticks spent queuing (Tick)
system.mem_ctrls.dram.totBusLat              19635000                       # Total ticks spent in databus transfers (Tick)
system.mem_ctrls.dram.totMemAccLat          112240750                       # Total ticks spent from burst creation until serviced by the DRAM (Tick)
system.mem_ctrls.dram.avgQLat                 9831.81                       # Average queueing delay per DRAM burst ((Tick/Count))
system.mem_ctrls.dram.avgBusLat               5000.00                       # Average bus latency per DRAM burst ((Tick/Count))
system.mem_ctrls.dram.avgMemAccLat           28581.81                       # Average memory access latency per DRAM burst ((Tick/Count))
system.mem_ctrls.dram.readRowHits                2767                       # Number of row buffer hits during reads (Count)
system.mem_ctrls.dram.writeRowHits                 26                       # Number of row buffer hits during writes (Count)
system.mem_ctrls.dram.readRowHitRate            70.46                       # Row buffer hit rate for reads (Ratio)
system.mem_ctrls.dram.writeRowHitRate           81.25                       # Row buffer hit rate for writes (Ratio)
system.mem_ctrls.dram.bytesPerActivate::samples         1162                       # Bytes accessed per row activation (Byte)
system.mem_ctrls.dram.bytesPerActivate::mean   217.555938                       # Bytes accessed per row activation (Byte)
system.mem_ctrls.dram.bytesPerActivate::gmean   146.571448                       # Bytes accessed per row activation (Byte)
system.mem_ctrls.dram.bytesPerActivate::stdev   231.379138                       # Bytes accessed per row activation (Byte)
system.mem_ctrls.dram.bytesPerActivate::0-127          455     39.16%     39.16% # Bytes accessed per row activation (Byte)
system.mem_ctrls.dram.bytesPerActivate::128-255          362     31.15%     70.31% # Bytes accessed per row activation (Byte)
system.mem_ctrls.dram.bytesPerActivate::256-383          159     13.68%     83.99% # Bytes accessed per row activation (Byte)
system.mem_ctrls.dram.bytesPerActivate::384-511           64      5.51%     89.50% # Bytes accessed per row activation (Byte)
system.mem_ctrls.dram.bytesPerActivate::512-639           36      3.10%     92.60% # Bytes accessed per row activation (Byte)
system.mem_ctrls.dram.bytesPerActivate::640-767           12      1.03%     93.63% # Bytes accessed per row activation (Byte)
system.mem_ctrls.dram.bytesPerActivate::768-895           20      1.72%     95.35% # Bytes accessed per row activation (Byte)
system.mem_ctrls.dram.bytesPerActivate::896-1023           12      1.03%     96.39% # Bytes accessed per row activation (Byte)
system.mem_ctrls.dram.bytesPerActivate::1024-1151           42      3.61%    100.00% # Bytes accessed per row activation (Byte)
system.mem_ctrls.dram.bytesPerActivate::total         1162                       # Bytes accessed per row activation (Byte)
system.mem_ctrls.dram.bytesRead                251328                       # Total number of bytes read from DRAM (Byte)
system.mem_ctrls.dram.bytesWritten               2048                       # Total number of bytes written to DRAM (Byte)
system.mem_ctrls.dram.avgRdBW              123.086296                       # Average DRAM read bandwidth in MiBytes/s ((Byte/Second))
system.mem_ctrls.dram.avgWrBW                1.002995                       # Average DRAM write bandwidth in MiBytes/s ((Byte/Second))
system.mem_ctrls.dram.peakBW                 12800.00                       # Theoretical peak bandwidth in MiByte/s ((Byte/Second))
system.mem_ctrls.dram.busUtil                    0.97                       # Data bus utilization in percentage (Ratio)
system.mem_ctrls.dram.busUtilRead                0.96                       # Data bus utilization in percentage for reads (Ratio)
system.mem_ctrls.dram.busUtilWrite               0.01                       # Data bus utilization in percentage for writes (Ratio)
system.mem_ctrls.dram.pageHitRate               70.55                       # Row buffer hit rate, read and write combined (Ratio)
system.mem_ctrls.dram.power_state.pwrStateResidencyTicks::UNDEFINED   2041884500                       # Cumulative time (in ticks) in various power states (Tick)
system.mem_ctrls.dram.rank0.actEnergy         5326440                       # Energy for activate commands per rank (pJ) (Joule)
system.mem_ctrls.dram.rank0.preEnergy         2819685                       # Energy for precharge commands per rank (pJ) (Joule)
system.mem_ctrls.dram.rank0.readEnergy       16807560                       # Energy for read commands per rank (pJ) (Joule)
system.mem_ctrls.dram.rank0.writeEnergy             0                       # Energy for write commands per rank (pJ) (Joule)
system.mem_ctrls.dram.rank0.refreshEnergy 161035680.000000                       # Energy for refresh commands per rank (pJ) (Joule)
system.mem_ctrls.dram.rank0.actBackEnergy    702518160                       # Energy for active background per rank (pJ) (Joule)
system.mem_ctrls.dram.rank0.preBackEnergy    192489600                       # Energy for precharge background per rank (pJ) (Joule)
system.mem_ctrls.dram.rank0.actPowerDownEnergy            0                       # Energy for active power-down per rank (pJ) (Joule)
system.mem_ctrls.dram.rank0.prePowerDownEnergy            0                       # Energy for precharge power-down per rank (pJ) (Joule)
system.mem_ctrls.dram.rank0.selfRefreshEnergy            0                       # Energy for self refresh per rank (pJ) (Joule)
system.mem_ctrls.dram.rank0.totalEnergy    1080997125                       # Total energy per rank (pJ) (Joule)
system.mem_ctrls.dram.rank0.averagePower   529.411495                       # Core power per rank (mW) (Watt)
system.mem_ctrls.dram.rank0.totalIdleTime            0                       # Total Idle time Per DRAM Rank (Tick)
system.mem_ctrls.dram.rank0.pwrStateTime::IDLE    493711750                       # Time in different power states (Tick)
system.mem_ctrls.dram.rank0.pwrStateTime::REF     68120000                       # Time in different power states (Tick)
system.mem_ctrls.dram.rank0.pwrStateTime::SREF            0                       # Time in different power states (Tick)
system.mem_ctrls.dram.rank0.pwrStateTime::PRE_PDN            0                       # Time in different power states (Tick)
system.mem_ctrls.dram.rank0.pwrStateTime::ACT   1480052750                       # Time in different power states (Tick)
system.mem_ctrls.dram.rank0.pwrStateTime::ACT_PDN            0                       # Time in different power states (Tick)
system.mem_ctrls.dram.rank1.actEnergy         2998800                       # Energy for activate commands per rank (pJ) (Joule)
system.mem_ctrls.dram.rank1.preEnergy         1590105                       # Energy for precharge commands per rank (pJ) (Joule)
system.mem_ctrls.dram.rank1.readEnergy       11231220                       # Energy for read commands per rank (pJ) (Joule)
system.mem_ctrls.dram.rank1.writeEnergy        167040                       # Energy for write commands per rank (pJ) (Joule)
system.mem_ctrls.dram.rank1.refreshEnergy 161035680.000000                       # Energy for refresh commands per rank (pJ) (Joule)
system.mem_ctrls.dram.rank1.actBackEnergy    310863180                       # Energy for active background per rank (pJ) (Joule)
system.mem_ctrls.dram.rank1.preBackEnergy    522304320                       # Energy for precharge background per rank (pJ) (Joule)
system.mem_ctrls.dram.rank1.actPowerDownEnergy            0                       # Energy for active power-down per rank (pJ) (Joule)
system.mem_ctrls.dram.rank1.prePowerDownEnergy            0                       # Energy for precharge power-down per rank (pJ) (Joule)
system.mem_ctrls.dram.rank1.selfRefreshEnergy            0                       # Energy for self refresh per rank (pJ) (Joule)
system.mem_ctrls.dram.rank1.totalEnergy    1010190345                       # Total energy per rank (pJ) (Joule)
system.mem_ctrls.dram.rank1.averagePower   494.734323                       # Core power per rank (mW) (Watt)
system.mem_ctrls.dram.rank1.totalIdleTime            0                       # Total Idle time Per DRAM Rank (Tick)
system.mem_ctrls.dram.rank1.pwrStateTime::IDLE   1354889250                       # Time in different power states (Tick)
system.mem_ctrls.dram.rank1.pwrStateTime::REF     68120000                       # Time in different power states (Tick)
system.mem_ctrls.dram.rank1.pwrStateTime::SREF            0                       # Time in different power states (Tick)
system.mem_ctrls.dram.rank1.pwrStateTime::PRE_PDN            0                       # Time in different power states (Tick)
system.mem_ctrls.dram.rank1.pwrStateTime::ACT    618875250                       # Time in different power states (Tick)
system.mem_ctrls.dram.rank1.pwrStateTime::ACT_PDN            0                       # Time in different power states (Tick)
system.mem_ctrls.power_state.pwrStateResidencyTicks::UNDEFINED   2041884500                       # Cumulative time (in ticks) in various power states (Tick)
system.membus.transDist::ReadResp                2436                       # Transaction distribution (Count)
system.membus.transDist::WritebackDirty            60                       # Transaction distribution (Count)
system.membus.transDist::CleanEvict               193                       # Transaction distribution (Count)
system.membus.transDist::UpgradeReq                 1                       # Transaction distribution (Count)
system.membus.transDist::ReadExReq               1497                       # Transaction distribution (Count)
system.membus.transDist::ReadExResp              1497                       # Transaction distribution (Count)
system.membus.transDist::ReadSharedReq           2436                       # Transaction distribution (Count)
system.membus.pktCount_system.l2.mem_side_port::system.mem_ctrls.port         8120                       # Packet count per connected requestor and responder (Count)
system.membus.pktCount_system.l2.mem_side_port::total         8120                       # Packet count per connected requestor and responder (Count)
system.membus.pktCount::total                    8120                       # Packet count per connected requestor and responder (Count)
system.membus.pktSize_system.l2.mem_side_port::system.mem_ctrls.port       255552                       # Cumulative packet size per connected requestor and responder (Byte)
system.membus.pktSize_system.l2.mem_side_port::total       255552                       # Cumulative packet size per connected requestor and responder (Byte)
system.membus.pktSize::total                   255552                       # Cumulative packet size per connected requestor and responder (Byte)
system.membus.snoops                                0                       # Total snoops (Count)
system.membus.snoopTraffic                          0                       # Total snoop traffic (Byte)
system.membus.snoopFanout::samples               3934                       # Request fanout histogram (Count)
system.membus.snoopFanout::mean                     0                       # Request fanout histogram (Count)
system.membus.snoopFanout::stdev                    0                       # Request fanout histogram (Count)
system.membus.snoopFanout::underflows               0      0.00%      0.00% # Request fanout histogram (Count)
system.membus.snoopFanout::0                     3934    100.00%    100.00% # Request fanout histogram (Count)
system.membus.snoopFanout::1                        0      0.00%    100.00% # Request fanout histogram (Count)
system.membus.snoopFanout::overflows                0      0.00%    100.00% # Request fanout histogram (Count)
system.membus.snoopFanout::min_value                0                       # Request fanout histogram (Count)
system.membus.snoopFanout::max_value                0                       # Request fanout histogram (Count)
system.membus.snoopFanout::total                 3934                       # Request fanout histogram (Count)
system.membus.power_state.pwrStateResidencyTicks::UNDEFINED   2041884500                       # Cumulative time (in ticks) in various power states (Tick)
system.membus.reqLayer2.occupancy             5322000                       # Layer occupancy (ticks) (Tick)
system.membus.reqLayer2.utilization               0.0                       # Layer utilization (Ratio)
system.membus.respLayer1.occupancy           20956750                       # Layer occupancy (ticks) (Tick)
system.membus.respLayer1.utilization              0.0                       # Layer utilization (Ratio)
system.membus.snoop_filter.totRequests           4187                       # Total number of requests made to the snoop filter. (Count)
system.membus.snoop_filter.hitSingleRequests          254                       # Number of requests hitting in the snoop filter with a single holder of the requested data. (Count)
system.membus.snoop_filter.hitMultiRequests            0                       # Number of requests hitting in the snoop filter with multiple (>1) holders of the requested data. (Count)
system.membus.snoop_filter.totSnoops                0                       # Total number of snoops made to the snoop filter. (Count)
system.membus.snoop_filter.hitSingleSnoops            0                       # Number of snoops hitting in the snoop filter with a single holder of the requested data. (Count)
system.membus.snoop_filter.hitMultiSnoops            0                       # Number of snoops hitting in the snoop filter with multiple (>1) holders of the requested data. (Count)
system.tol2bus.transDist::ReadResp              10338                       # Transaction distribution (Count)
system.tol2bus.transDist::WritebackDirty         1918                       # Transaction distribution (Count)
system.tol2bus.transDist::WritebackClean         8331                       # Transaction distribution (Count)
system.tol2bus.transDist::CleanEvict             1029                       # Transaction distribution (Count)
system.tol2bus.transDist::UpgradeReq                3                       # Transaction distribution (Count)
system.tol2bus.transDist::UpgradeResp               3                       # Transaction distribution (Count)
system.tol2bus.transDist::ReadExReq              1621                       # Transaction distribution (Count)
system.tol2bus.transDist::ReadExResp             1621                       # Transaction distribution (Count)
system.tol2bus.transDist::ReadCleanReq           8845                       # Transaction distribution (Count)
system.tol2bus.transDist::ReadSharedReq          1493                       # Transaction distribution (Count)
system.tol2bus.pktCount_system.cpu.icache.mem_side_port::system.l2.cpu_side_port        26020                       # Packet count per connected requestor and responder (Count)
system.tol2bus.pktCount_system.cpu.dcache.mem_side_port::system.l2.cpu_side_port         8836                       # Packet count per connected requestor and responder (Count)
system.tol2bus.pktCount::total                  34856                       # Packet count per connected requestor and responder (Count)
system.tol2bus.pktSize_system.cpu.icache.mem_side_port::system.l2.cpu_side_port      1099200                       # Cumulative packet size per connected requestor and responder (Byte)
system.tol2bus.pktSize_system.cpu.dcache.mem_side_port::system.l2.cpu_side_port       318208                       # Cumulative packet size per connected requestor and responder (Byte)
system.tol2bus.pktSize::total                 1417408                       # Cumulative packet size per connected requestor and responder (Byte)
system.tol2bus.snoops                             346                       # Total snoops (Count)
system.tol2bus.snoopTraffic                      3904                       # Total snoop traffic (Byte)
system.tol2bus.snoopFanout::samples             12307                       # Request fanout histogram (Count)
system.tol2bus.snoopFanout::mean             0.008125                       # Request fanout histogram (Count)
system.tol2bus.snoopFanout::stdev            0.089778                       # Request fanout histogram (Count)
system.tol2bus.snoopFanout::underflows              0      0.00%      0.00% # Request fanout histogram (Count)
system.tol2bus.snoopFanout::0                   12207     99.19%     99.19% # Request fanout histogram (Count)
system.tol2bus.snoopFanout::1                     100      0.81%    100.00% # Request fanout histogram (Count)
system.tol2bus.snoopFanout::2                       0      0.00%    100.00% # Request fanout histogram (Count)
system.tol2bus.snoopFanout::3                       0      0.00%    100.00% # Request fanout histogram (Count)
system.tol2bus.snoopFanout::4                       0      0.00%    100.00% # Request fanout histogram (Count)
system.tol2bus.snoopFanout::overflows               0      0.00%    100.00% # Request fanout histogram (Count)
system.tol2bus.snoopFanout::min_value               0                       # Request fanout histogram (Count)
system.tol2bus.snoopFanout::max_value               1                       # Request fanout histogram (Count)
system.tol2bus.snoopFanout::total               12307                       # Request fanout histogram (Count)
system.tol2bus.power_state.pwrStateResidencyTicks::UNDEFINED   2041884500                       # Cumulative time (in ticks) in various power states (Tick)
system.tol2bus.reqLayer0.occupancy           21636500                       # Layer occupancy (ticks) (Tick)
system.tol2bus.reqLayer0.utilization              0.0                       # Layer utilization (Ratio)
system.tol2bus.respLayer0.occupancy          13268498                       # Layer occupancy (ticks) (Tick)
system.tol2bus.respLayer0.utilization             0.0                       # Layer utilization (Ratio)
system.tol2bus.respLayer1.occupancy           4673498                       # Layer occupancy (ticks) (Tick)
system.tol2bus.respLayer1.utilization             0.0                       # Layer utilization (Ratio)
system.tol2bus.snoop_filter.totRequests         22895                       # Total number of requests made to the snoop filter. (Count)
system.tol2bus.snoop_filter.hitSingleRequests        10936                       # Number of requests hitting in the snoop filter with a single holder of the requested data. (Count)
system.tol2bus.snoop_filter.hitMultiRequests            4                       # Number of requests hitting in the snoop filter with multiple (>1) holders of the requested data. (Count)
system.tol2bus.snoop_filter.totSnoops              94                       # Total number of snoops made to the snoop filter. (Count)
system.tol2bus.snoop_filter.hitSingleSnoops           94                       # Number of snoops hitting in the snoop filter with a single holder of the requested data. (Count)
system.tol2bus.snoop_filter.hitMultiSnoops            0                       # Number of snoops hitting in the snoop filter with multiple (>1) holders of the requested data. (Count)
system.voltage_domain.voltage                       1                       # Voltage in Volts (Volt)
system.workload.inst.arm                            0                       # number of arm instructions executed (Count)
system.workload.inst.quiesce                        0                       # number of quiesce instructions executed (Count)

---------- End Simulation Statistics   ----------
